version 2
run General-10-20190529-16:32:55-15740
attr configname General
attr datetime 20190529-16:32:55
attr experiment General
attr inifile omnetpp.ini
attr iterationvars ""
attr iterationvarsf ""
attr measurement ""
attr network networks.Net5
attr processid 15740
attr repetition 10
attr replication #10
attr resultdir results
attr runnumber 10
attr seedset 10
param **.appType "\"App\""
param **.app.packetLength "1500 bytes"
param **.app.totalNodes 3
param **.destAddresses "\"0\""
param **.sendIaTime "uniform(5s, 10s)"
param **.sendIaTimeEvil 10ms

vector 0 Net5.rte[1].app endToEndDelay:vector ETV
attr interpolationmode none
attr title "end-to-end delay of arrived packets, vector"
attr unit s
vector 1 Net5.rte[2].app endToEndDelay:vector ETV
attr interpolationmode none
attr title "end-to-end delay of arrived packets, vector"
attr unit s
vector 2 Net5.rte[0].app endToEndDelay:vector ETV
attr interpolationmode none
attr title "end-to-end delay of arrived packets, vector"
attr unit s
0	7	5.205426399696	0.101666666667
0	19	5.40875973303	0.101666666667
0	49	5.612093066364	0.101666666667
0	62	6.69713912575	0.101666666667
0	82	6.900483570195	0.101666666667
0	92	6.902150236862	0.103333333334
0	132	9.26328099346	0.101666666667
0	146	9.364947660127	0.101666666667
0	160	11.822997794221	0.101666666667
0	180	12.026353349777	0.101666666667
0	190	12.028020016444	0.103333333334
0	230	14.254468035053	0.101666666667
0	245	14.35613470172	0.101666666667
0	280	18.065967887208	0.101666666667
0	294	18.167634553875	0.101666666667
0	329	22.673582390683	0.101666666667
0	344	22.77524905735	0.101666666667
0	379	27.520072760494	0.101666666667
0	393	27.621739427161	0.101666666667
0	401	31.756612639508	0.101666666667
0	413	31.960012639508	0.101733333333
0	431	32.163345972842	0.101666666667
0	464	33.663497176454	0.101666666667
0	504	33.866874954232	0.101666666667
0	508	33.868541620899	0.103333333334
0	541	34.073497176454	0.101666666667
1	13	5.307093066363	0.101666666667
1	33	5.510426399697	0.101666666667
1	43	5.512093066364	0.103333333334
1	83	6.900483570195	0.101666666667
1	98	7.002150236862	0.101666666667
1	105	8.958269882348	0.101666666667
1	117	9.161614326793	0.101677777778
1	147	9.364947660127	0.101666666667
1	181	12.026353349777	0.101666666667
1	196	12.128020016444	0.101666666667
1	209	14.051112479497	0.101666666667
1	229	14.254468035053	0.101666666667
1	239	14.25613470172	0.103333333334
1	252	17.760923442763	0.101666666667
1	265	17.964301220541	0.101711111111
1	295	18.167634553875	0.101666666667
1	308	22.470204612905	0.101666666667
1	328	22.673582390683	0.101666666667
1	338	22.67524905735	0.103333333334
1	352	27.215006093827	0.101666666667
1	364	27.418406093827	0.101733333333
1	394	27.621739427161	0.101666666667
1	407	31.858279306175	0.101666666667
1	419	32.061679306175	0.101666666667
1	448	33.561830509787	0.101666666667
1	480	33.765208287565	0.101711111111
2	34	5.510426399697	0.101666666667
2	48	5.612093066364	0.101666666667
2	56	6.595472459083	0.101666666667
2	68	6.798816903528	0.101677777778
2	97	7.002150236862	0.101666666667
2	111	9.059936549015	0.101666666667
2	131	9.26328099346	0.101666666667
2	141	9.264947660127	0.103333333334
2	154	11.721331127554	0.101666666667
2	166	11.92468668311	0.101688888889
2	195	12.128020016444	0.101666666667
2	203	13.94944581283	0.101666666667
2	215	14.152801368386	0.101688888889
2	244	14.35613470172	0.101666666667
2	258	17.86259010943	0.101666666667
2	279	18.065967887208	0.101666666667
2	289	18.067634553875	0.103333333334
2	302	22.368537946238	0.101666666667
2	314	22.571915724016	0.101711111111
2	343	22.77524905735	0.101666666667
2	358	27.316672760494	0.101666666667
2	378	27.520072760494	0.101666666667
2	388	27.521739427161	0.103333333334
2	430	32.163345972842	0.101666666667
2	505	33.866874954232	0.101666666667
2	525	33.971830509787	0.101666666667
2	557	34.175208287565	0.101711111111

