version 2
run General-44-20190610-18:04:05-6192
attr configname General
attr datetime 20190610-18:04:05
attr experiment General
attr inifile omnetpp.ini
attr iterationvars ""
attr iterationvarsf ""
attr measurement ""
attr network networks.Net5
attr processid 6192
attr repetition 44
attr replication #44
attr resultdir results
attr runnumber 44
attr seedset 44
param **.appType "\"App\""
param **.app.packetLength "1500 bytes"
param **.app.totalNodes 10
param **.destAddresses "\"0\""
param **.sendIaTime "uniform(5s, 10s)"
param **.sendIaTimeEvil 10ms

vector 0 Net5.rte[7].app endToEndDelay:vector ETV
attr interpolationmode none
attr title "end-to-end delay of arrived packets, vector"
attr unit s
vector 1 Net5.rte[3].app endToEndDelay:vector ETV
attr interpolationmode none
attr title "end-to-end delay of arrived packets, vector"
attr unit s
vector 2 Net5.rte[5].app endToEndDelay:vector ETV
attr interpolationmode none
attr title "end-to-end delay of arrived packets, vector"
attr unit s
vector 3 Net5.rte[2].app endToEndDelay:vector ETV
attr interpolationmode none
attr title "end-to-end delay of arrived packets, vector"
attr unit s
vector 4 Net5.rte[4].app endToEndDelay:vector ETV
attr interpolationmode none
attr title "end-to-end delay of arrived packets, vector"
attr unit s
vector 5 Net5.rte[6].app endToEndDelay:vector ETV
attr interpolationmode none
attr title "end-to-end delay of arrived packets, vector"
attr unit s
vector 6 Net5.rte[0].app endToEndDelay:vector ETV
attr interpolationmode none
attr title "end-to-end delay of arrived packets, vector"
attr unit s
vector 7 Net5.rte[9].app endToEndDelay:vector ETV
attr interpolationmode none
attr title "end-to-end delay of arrived packets, vector"
attr unit s
vector 8 Net5.rte[8].app endToEndDelay:vector ETV
attr interpolationmode none
attr title "end-to-end delay of arrived packets, vector"
attr unit s
vector 9 Net5.rte[1].app endToEndDelay:vector ETV
attr interpolationmode none
attr title "end-to-end delay of arrived packets, vector"
attr unit s
0	11	5.362207331196	0.203333333334
0	45	5.768873997864	0.203333333334
0	257	6.180540664533	0.208333333335
0	267	6.328760155875	0.203333333334
0	362	6.735449044765	0.203333333334
0	398	6.742115711433	0.210000000002
0	744	7.405212965094	0.313333333336
0	881	7.508220848161	0.101666666667
0	1010	7.606879631761	0.311666666669
0	1100	7.624170841082	0.211666666669
0	1254	7.777719642946	0.310000000002
0	1306	7.829170841083	0.213333333336
0	1327	7.882719642947	0.313333333336
0	1336	7.921554181497	0.311666666669
0	1477	8.647596961586	0.101666666667
0	1518	8.659263628255	0.215000000003
0	1711	9.543224638666	0.210000000002
0	1767	9.746557972	0.210000000002
0	2165	13.124303728922	0.310000000002
0	2264	13.225970395589	0.208333333335
0	2304	13.237499331649	0.315000000003
0	2346	13.277535946081	0.311666666669
0	2432	13.440832664983	0.213333333336
0	2446	13.480869279415	0.311666666669
0	2652	14.717471038131	0.311666666669
0	2682	14.920804371465	0.311666666669
0	2859	15.623214701463	0.210000000002
0	2903	15.82488136813	0.310000000002
0	2916	15.928057932028	0.101666666667
0	2961	16.058601943111	0.101666666667
0	3120	16.473601943114	0.313333333336
0	3285	17.333156822161	0.310000000002
0	3371	17.454157898735	0.101666666667
0	3522	17.643156822163	0.315000000003
0	3541	17.664157898737	0.210000000002
0	3736	18.423657351109	0.101666666667
0	3762	18.431990684444	0.313333333336
0	3957	18.962296472045	0.208333333335
0	3963	18.967296472046	0.315000000003
0	4039	20.343549108101	0.101666666667
0	4171	20.756882441437	0.311666666669
0	4399	23.227069504847	0.31666666667
0	4505	23.52540283818	0.310000000002
0	4612	23.72666415017	0.101666666667
0	4648	23.738330816839	0.31666666667
0	4689	24.0104680218	0.305000000001
0	4746	24.620601355134	0.305133333333
0	5018	24.985671249026	0.311666666669
0	5136	25.192337915694	0.213333333336
0	5150	25.237268021804	0.311666666669
0	5528	26.549845192564	0.310000000002
0	5567	26.599502536941	0.311666666669
0	5587	26.651511859231	0.208333333335
0	5606	26.701169203608	0.210000000002
0	5771	28.498031058423	0.210000000002
0	5838	28.803031058424	0.311666666669
0	6025	29.982326146728	0.310000000002
0	6039	30.085659480062	0.311666666669
0	6100	31.07322264373	0.101666666667
0	6231	31.286555977066	0.213333333336
0	6380	31.605334390657	0.101666666667
0	6419	31.613667723992	0.211666666669
0	6454	32.000478970717	0.305000000001
0	6585	32.610578970718	0.305000000001
0	6626	32.622245637387	0.31666666667
0	6631	32.695289481264	0.305000000001
0	6741	33.305422814598	0.305133333333
0	6990	33.923756147935	0.313333333336
0	7177	34.607328834841	0.315000000003
0	7244	34.805662168174	0.208333333335
0	7247	34.870967743186	0.203333333334
0	7317	35.277789965408	0.203488888888
0	7536	35.50705253494	0.310000000002
0	7644	35.691123298744	0.210000000002
0	7692	35.817052534942	0.315000000003
0	7819	36.615244275628	0.101666666667
0	7858	36.623577608963	0.211666666669
0	8022	37.766464517926	0.210000000002
0	8089	38.071464517927	0.311666666669
0	8179	39.265321996927	0.203333333334
0	8359	39.504221239402	0.311666666669
0	8444	39.672121996927	0.203333333334
0	8480	39.678788663595	0.210000000002
0	8495	39.707554572736	0.311666666669
0	8787	40.372055761545	0.31666666667
0	8949	40.670389094878	0.310000000002
0	8992	40.746983616548	0.315000000003
0	9043	40.945316949881	0.208333333335
0	9129	41.811806769646	0.101666666667
0	9257	42.021806769648	0.210000000002
0	9417	42.927568557895	0.215000000003
0	9638	43.332568557896	0.315000000003
0	9708	43.518084976065	0.101666666667
0	9741	43.528084976067	0.315000000003
0	9780	44.56728582124	0.203333333334
0	9862	44.974108043462	0.203333333334
0	9908	44.985774710131	0.215000000003
0	10127	46.580744834866	0.310000000002
0	10533	48.556678702973	0.310000000002
0	10590	48.60151901513	0.311666666669
0	10757	48.804852348464	0.311666666669
0	10843	48.866678702975	0.315000000003
0	10942	49.030477092318	0.208333333335
0	10948	49.035477092319	0.315000000003
0	11170	49.795822395276	0.31666666667
1	25	5.56554066453	0.203333333334
1	39	5.72731387379	0.203333333334
1	128	5.972207331198	0.203333333334
1	170	5.978873997866	0.210000000002
1	238	6.125426822541	0.203333333334
1	281	6.532115711431	0.203355555556
1	482	6.9437823781	0.208333333335
1	715	7.398546298426	0.103333333334
1	717	7.398546298426	0.306666666668
1	896	7.511554181495	0.105000000001
1	1090	7.619170841081	0.206666666668
1	1126	7.672719642945	0.205000000001
1	1169	7.713220848162	0.103333333334
1	1300	7.824170841082	0.208333333335
1	1321	7.876052976279	0.306666666668
1	1484	8.649263628253	0.103333333334
1	1514	8.655930294921	0.211666666669
1	1567	8.926535749774	0.203333333334
1	1591	9.275877417165	0.101666666667
1	1597	9.333224638664	0.203355555556
1	1757	9.741557971999	0.205000000001
1	1831	12.61090372892	0.203333333334
1	2004	13.017637062254	0.203333333334
1	2040	13.020970395588	0.206666666668
1	2101	13.069202612746	0.103333333334
1	2294	13.230832664981	0.308333333335
1	2320	13.27253594608	0.103333333334
1	2426	13.435832664982	0.208333333335
1	2536	14.509137704796	0.103333333334
1	2626	14.71247103813	0.103333333334
1	2834	15.618214701462	0.205000000001
1	2875	15.719881368129	0.205000000001
1	2969	16.060268609778	0.103333333334
1	3114	16.466935276446	0.306666666668
1	3240	17.229823488827	0.206666666668
1	3335	17.433156822161	0.105000000001
1	3399	17.455824565402	0.103333333334
1	3531	17.659157898736	0.205000000001
1	3642	18.223657351109	0.105000000001
1	3743	18.425324017776	0.103333333334
1	3786	18.550585360932	0.101666666667
1	3827	18.75396313871	0.101666666667
1	3865	18.757296472044	0.105000000001
1	4054	20.346882441435	0.105000000001
1	4121	20.548549108102	0.103333333334
1	4283	23.017069504845	0.106666666668
1	4447	23.420402838179	0.205000000001
1	4513	23.528330816837	0.106666666668
1	4621	23.728330816837	0.103333333334
1	4903	24.830601355136	0.210000000002
1	4928	24.879004582358	0.205000000001
1	5036	25.028934688469	0.103333333334
1	5130	25.187337915693	0.208333333335
1	5208	26.036400748118	0.203333333334
1	5355	26.391169203606	0.103333333334
1	5386	26.443178525896	0.203333333334
1	5422	26.44651185923	0.206666666668
1	5596	26.696169203607	0.205000000001
1	5753	28.493031058422	0.205000000001
1	5788	28.594697725089	0.103333333334
1	5964	29.877326146727	0.103333333334
1	6001	29.885659480062	0.213333333336
1	6129	31.074889310397	0.103333333334
1	6225	31.281555977065	0.208333333335
1	6389	31.607001057324	0.103333333334
1	6418	31.613667723992	0.211666666669
1	6517	32.412245637385	0.106666666668
1	6691	32.818912304053	0.208333333335
1	6837	33.5154228146	0.210000000002
1	6984	33.917089481267	0.306666666668
1	6993	33.987128834839	0.305000000001
1	7137	34.597328834839	0.305000000001
1	7168	34.600662168173	0.308333333335
1	7438	35.403719201606	0.206666666668
1	7488	35.48778996541	0.210000000002
1	7601	35.60705253494	0.105000000001
1	7634	35.686123298743	0.205000000001
1	7828	36.616910942295	0.103333333334
1	7857	36.623577608963	0.211666666669
1	8004	37.761464517925	0.205000000001
1	8039	37.863131184592	0.103333333334
1	8124	39.061988663593	0.203333333334
1	8196	39.295887906067	0.103333333334
1	8290	39.468788663593	0.203466666666
1	8333	39.499221239401	0.103333333334
1	8546	39.79996673224	0.203333333334
1	8574	39.880455330262	0.208333333335
1	8658	40.126716949877	0.305000000001
1	8676	40.162055761543	0.106666666668
1	8902	40.565389094877	0.205000000001
1	8952	40.736983616546	0.305000000001
1	8983	40.74031694988	0.308333333335
1	9160	41.813473436313	0.103333333334
1	9247	42.016806769647	0.205000000001
1	9411	42.922568557894	0.210000000002
1	9498	43.122568557894	0.105000000001
1	9715	43.519751642732	0.103333333334
1	9737	43.5264183094	0.313333333336
1	9899	44.98077471013	0.210000000002
1	9983	45.182441376797	0.208333333335
1	10105	46.475744834865	0.205000000001
1	10361	48.393185681795	0.103333333334
1	10417	48.453345369639	0.206666666668
1	10560	48.596519015129	0.103333333334
1	10596	48.618710425649	0.101666666667
1	10614	48.656678702973	0.105000000001
1	10764	48.822143758983	0.101666666667
1	10802	48.825477092317	0.105000000001
1	11072	49.585822395274	0.106666666668
1	11262	50.253540784686	0.101666666667
1	11399	50.457007451353	0.1018
1	11446	50.459890942186	0.205000000001
2	106	5.880540664533	0.111666666669
2	210	6.075540664532	0.103333333334
2	342	6.637115711432	0.105000000001
2	441	6.845449044767	0.110000000002
2	503	6.999887514826	0.203333333334
2	672	7.300212965093	0.208333333335
2	747	7.406554181494	0.203333333334
2	857	7.50187963176	0.206666666668
2	934	7.519170841081	0.106666666668
2	1127	7.672719642945	0.205000000001
2	1216	7.725837507749	0.110000000002
2	1253	7.777719642946	0.208333333335
2	1273	7.816554181496	0.206666666668
2	1364	8.342585850474	0.101666666667
2	1403	8.545930294919	0.101666666667
2	1453	8.555930294921	0.111666666669
2	1657	9.438224638665	0.105000000001
2	1738	9.641557971999	0.105000000001
2	2032	13.019303728921	0.205000000001
2	2147	13.120970395588	0.103333333334
2	2187	13.132499331648	0.210000000002
2	2229	13.17253594608	0.206666666668
2	2376	13.337499331649	0.110000000002
2	2399	13.375869279414	0.206666666668
2	2594	14.61247103813	0.206666666668
2	2664	14.815804371464	0.206666666668
2	2786	15.518214701462	0.105000000001
2	2805	15.55020194311	0.203333333334
2	2876	15.719881368129	0.205000000001
2	2906	15.826391265361	0.101666666667
2	2919	15.956935276444	0.2034
2	3093	16.368601943113	0.208333333335
2	3221	17.149124565401	0.101666666667
2	3234	17.22815682216	0.205000000001
2	3294	17.352491232068	0.1017
2	3440	17.538156822162	0.210000000002
2	3485	17.559157898736	0.105000000001
2	3568	17.915235128886	0.203333333334
2	3669	18.321990684442	0.203333333334
2	3707	18.326990684443	0.208333333335
2	3911	18.857296472044	0.103333333334
2	3933	18.862296472045	0.210000000002
2	3977	19.835126885878	0.203333333334
2	3997	20.241882441434	0.203422222222
2	4153	20.651882441436	0.206666666668
2	4333	23.122069504846	0.211666666669
2	4378	23.218197483503	0.203333333334
2	4448	23.420402838179	0.205000000001
2	4540	23.624997483503	0.203333333334
2	4582	23.633330816838	0.211666666669
2	4836	24.732268021803	0.111666666669
2	4931	24.880671249025	0.206666666668
2	5080	25.08900458236	0.110000000002
2	5103	25.132268021803	0.206666666668
2	5414	26.444845192563	0.205000000001
2	5466	26.49450253694	0.206666666668
2	5510	26.54651185923	0.103333333334
2	5552	26.596169203607	0.105000000001
2	5710	28.393031058422	0.105000000001
2	5820	28.698031058423	0.206666666668
2	5966	29.877326146727	0.205000000001
2	6014	29.980659480061	0.206666666668
2	6046	30.768178199285	0.101666666667
2	6058	30.971555977063	0.101711111111
2	6192	31.183222643732	0.110000000002
2	6242	31.300245501767	0.101666666667
2	6308	31.50366772399	0.101666666667
2	6353	31.508667723991	0.106666666668
2	6564	32.517245637386	0.211666666669
2	6660	32.72057897072	0.110000000002
2	6802	33.417089481267	0.111666666669
2	6961	33.818756147934	0.208333333335
2	7120	34.50232883484	0.210000000002
2	7207	34.700662168173	0.103333333334
2	7410	35.389456632077	0.111666666669
2	7432	35.402052534939	0.205000000001
2	7570	35.586123298743	0.105000000001
2	7659	35.712052534941	0.210000000002
2	7708	36.310144275627	0.101666666667
2	7751	36.513577608961	0.101666666667
2	7796	36.518577608962	0.106666666668
2	7961	37.661464517925	0.105000000001
2	8071	37.966464517926	0.206666666668
2	8262	39.399221239401	0.206666666668
2	8395	39.573788663594	0.105000000001
2	8419	39.602554572735	0.206666666668
2	8531	39.782121996929	0.110000000002
2	8723	40.267055761544	0.211666666669
2	8903	40.565389094877	0.205000000001
2	8932	40.641983616547	0.210000000002
2	9014	40.84031694988	0.103333333334
2	9057	41.506695658534	0.101666666667
2	9072	41.60988959527	0.203333333334
2	9079	41.710140102979	0.101777777778
2	9217	41.916806769647	0.105000000001
2	9370	42.824235224561	0.111666666669
2	9432	43.009507198286	0.203333333334
2	9570	43.227568557895	0.210000000002
2	9641	43.416418309398	0.203333333334
2	9683	43.423084976066	0.210000000002
2	9847	44.882441376797	0.111666666669
2	9950	45.084108043464	0.110000000002
2	10106	46.475744834865	0.205000000001
2	10411	48.451678702972	0.205000000001
2	10465	48.496519015129	0.206666666668
2	10660	48.699852348463	0.206666666668
2	10729	48.761678702974	0.210000000002
2	10878	48.925477092317	0.103333333334
2	10901	48.930477092318	0.210000000002
2	11126	49.690822395275	0.211666666669
2	11317	50.355207451353	0.101666666667
2	11456	50.461557608853	0.105000000001
2	11473	50.466557608854	0.211666666669
3	125	5.930647207124	0.203333333334
3	228	6.078873997866	0.310000000002
3	251	6.177207331199	0.205000000001
3	389	6.737115711432	0.205000000001
3	521	7.0437823781	0.308333333335
3	585	7.195212965092	0.103333333334
3	625	7.264375198499	0.101666666667
3	716	7.398546298426	0.103333333334
3	813	7.467719642944	0.101677777778
3	909	7.51417084108	0.101666666667
3	1042	7.611554181495	0.205000000001
3	1113	7.671052976278	0.101666666667
3	1170	7.713220848162	0.103333333334
3	1342	7.924170841082	0.308333333335
3	1539	8.75093029492	0.205000000001
3	1554	8.755930294921	0.311666666669
3	1700	9.538224638665	0.205000000001
3	1724	9.638224638665	0.101666666667
3	1803	12.407570395586	0.203333333334
3	1861	12.81430372892	0.2034
3	2053	13.024165998313	0.101666666667
3	2107	13.070869279413	0.105000000001
3	2258	13.222637062255	0.205000000001
3	2321	13.27253594608	0.103333333334
3	2455	13.535832664982	0.308333333335
3	2542	14.510804371463	0.105000000001
3	2627	14.71247103813	0.103333333334
3	2695	15.311525812572	0.101666666667
3	2746	15.514881368128	0.101666666667
3	2776	15.516548034795	0.103333333334
3	3025	16.163601943112	0.206666666668
3	3044	16.261935276445	0.101666666667
3	3104	16.413156822157	0.305000000001
3	3148	17.023156822159	0.305000000001
3	3466	17.555824565402	0.101666666667
3	3496	17.560824565403	0.208333333335
3	3513	17.634823488828	0.306666666668
3	3636	18.221990684442	0.103333333334
3	3777	18.526990684443	0.205000000001
3	3857	18.755629805377	0.103333333334
3	3951	18.958963138711	0.205000000001
3	4095	20.446882441435	0.205000000001
3	4122	20.548549108102	0.103333333334
3	4200	22.605269504844	0.305000000001
3	4259	23.00619671201	0.101666666667
3	4350	23.215402838178	0.305000000001
3	4386	23.218736171512	0.308333333335
3	4634	23.729997483504	0.308333333335
3	4667	23.829997483504	0.205000000001
3	4695	24.063904582356	0.305000000001
3	4779	24.674004582357	0.3051
3	4975	24.930601355136	0.310000000002
3	5037	25.028934688469	0.103333333334
3	5159	25.287337915693	0.308333333335
3	5184	25.833067414784	0.203333333334
3	5236	26.239845192562	0.203444444444
3	5361	26.392835870273	0.105000000001
3	5538	26.592835870273	0.101666666667
3	5581	26.648178525897	0.205000000001
3	5639	27.967275149855	0.101666666667
3	5702	28.391364391755	0.103333333334
3	5789	28.594697725089	0.103333333334
3	5845	29.468926146726	0.101666666667
3	5857	29.672326146726	0.101733333333
3	5965	29.877326146727	0.103333333334
3	6170	31.176555977064	0.205000000001
3	6254	31.381555977065	0.308333333335
3	6310	31.50366772399	0.101666666667
3	6434	31.708667723991	0.205000000001
3	6612	32.613912304052	0.308333333335
3	6718	32.918912304053	0.308333333335
3	6891	33.6154228146	0.310000000002
3	6912	33.712089481266	0.101666666667
3	7012	34.101151708015	0.101666666667
3	7063	34.393995501505	0.101666666667
3	7131	34.586919201604	0.305000000001
3	7238	34.80232883484	0.205000000001
3	7284	35.197052534938	0.305133333333
3	7551	35.582789965409	0.101666666667
3	7579	35.58778996541	0.310000000002
3	7683	35.808719201607	0.306666666668
3	7753	36.513577608961	0.101666666667
3	7867	36.718577608962	0.205000000001
3	7953	37.659797851258	0.103333333334
3	8040	37.863131184592	0.103333333334
3	8202	39.297554572734	0.105000000001
3	8334	39.499221239401	0.103333333334
3	8471	39.673788663594	0.205000000001
3	8502	39.750089094874	0.305000000001
3	8609	39.980455330262	0.308333333335
3	8744	40.360389094876	0.305000000001
3	8775	40.36372242821	0.308333333335
3	8861	40.533650283212	0.101666666667
3	9037	40.941983616547	0.205000000001
3	9198	41.913473436313	0.101666666667
3	9228	41.918473436314	0.208333333335
3	9468	43.022568557894	0.310000000002
3	9590	43.314751642731	0.101666666667
3	9624	43.324235224561	0.306666666668
3	9750	43.621418309399	0.205000000001
3	9942	45.08077471013	0.310000000002
3	10006	45.282441376797	0.308333333335
3	10025	46.067300390419	0.101666666667
3	10037	46.270744834864	0.101666666667
3	10159	47.636445369638	0.305000000001
3	10223	48.246678702971	0.305233333332
3	10367	48.394852348462	0.105000000001
3	10561	48.596519015129	0.103333333334
3	10794	48.82381042565	0.103333333334
3	10833	48.85834536964	0.306666666668
3	10935	49.027143758984	0.205000000001
3	11160	49.787489061941	0.308333333335
3	11216	50.051435386629	0.101666666667
3	11267	50.254890942185	0.101788888889
3	11431	50.458224275519	0.101666666667
4	173	5.980540664533	0.211666666669
4	247	6.175540664532	0.203333333334
4	388	6.737115711432	0.205000000001
4	485	6.945449044767	0.210000000002
4	509	7.005837507745	0.203333333334
4	593	7.196879631759	0.105000000001
4	778	7.412504174413	0.203333333334
4	858	7.50187963176	0.206666666668
4	897	7.511554181495	0.105000000001
4	953	7.569386309611	0.101666666667
4	1136	7.674386309612	0.105000000001
4	1274	7.816554181496	0.206666666668
4	1303	7.825837507749	0.210000000002
4	1492	8.65093029492	0.105000000001
4	1515	8.655930294921	0.211666666669
4	1577	9.129869083108	0.203333333334
4	1671	9.536557971998	0.203333333334
4	1699	9.538224638665	0.205000000001
4	1910	12.915970395587	0.101666666667
4	2075	13.029165998314	0.106666666668
4	2236	13.174202612747	0.208333333335
4	2254	13.220970395588	0.203333333334
4	2400	13.375869279414	0.206666666668
4	2429	13.437499331649	0.210000000002
4	2601	14.614137704797	0.208333333335
4	2665	14.815804371464	0.206666666668
4	2689	15.209859145905	0.101666666667
4	2705	15.413214701461	0.101688888889
4	2822	15.616548034795	0.101666666667
4	2983	16.063601943112	0.106666666668
4	3058	16.265268609779	0.105000000001
4	3193	17.124823488826	0.101666666667
4	3249	17.250791232068	0.101666666667
4	3368	17.454157898735	0.101666666667
4	3416	17.459157898736	0.106666666668
4	3516	17.638156822162	0.310000000002
4	3700	18.325324017776	0.206666666668
4	3751	18.426990684443	0.105000000001
4	3922	18.858963138711	0.206666666668
4	3947	18.957296472044	0.203333333334
4	4055	20.346882441435	0.105000000001
4	4154	20.651882441436	0.206666666668
4	4393	23.222069504846	0.311666666669
4	4410	23.317069504845	0.101666666667
4	4633	23.729997483504	0.105000000001
4	4642	23.733330816838	0.311666666669
4	4867	24.777337915691	0.103333333334
4	4906	24.832268021803	0.211666666669
4	5104	25.132268021803	0.206666666668
4	5133	25.18900458236	0.210000000002
4	5214	26.08441364805	0.203333333334
4	5300	26.295550242132	0.305000000001
4	5316	26.341511859229	0.101666666667
4	5436	26.491169203606	0.203333333334
4	5473	26.496169203607	0.208333333335
4	5577	26.64651185923	0.203333333334
4	5633	27.881253280643	0.203333333334
4	5656	28.288031058421	0.203444444444
4	5821	28.698031058423	0.206666666668
4	5898	29.773992813393	0.101666666667
4	6015	29.980659480061	0.206666666668
4	6138	31.076555977064	0.105000000001
4	6207	31.1985788351	0.101666666667
4	6228	31.283222643732	0.210000000002
4	6267	31.402001057323	0.101755555556
4	6400	31.608667723991	0.105000000001
4	6617	32.617245637386	0.311666666669
4	6694	32.82057897072	0.210000000002
4	6840	33.517089481267	0.211666666669
4	6926	33.7154228146	0.105000000001
4	7083	34.398995501506	0.106666666668
4	7234	34.800662168173	0.203333333334
4	7270	35.07430107652	0.203333333334
4	7358	35.298719201605	0.101666666667
4	7447	35.481123298742	0.203333333334
4	7492	35.489456632077	0.211666666669
4	7686	35.812052534941	0.310000000002
4	7702	36.20847760896	0.101666666667
4	7714	36.411910942294	0.101766666667
4	7839	36.618577608962	0.105000000001
4	7887	37.149664517924	0.203333333334
4	7907	37.556464517924	0.203466666666
4	8072	37.966464517926	0.206666666668
4	8269	39.400887906068	0.208333333335
4	8420	39.602554572735	0.206666666668
4	8470	39.673788663594	0.205000000001
4	8577	39.882121996929	0.210000000002
4	8781	40.367055761544	0.311666666669
4	8831	40.462055761543	0.101666666667
4	8881	40.538650283213	0.106666666668
4	9033	40.94031694988	0.203333333334
4	9067	41.608362325201	0.101666666667
4	9126	41.811806769646	0.101666666667
4	9177	41.816806769647	0.106666666668
4	9414	42.924235224561	0.211666666669
4	9610	43.319751642732	0.106666666668
4	9632	43.327568557895	0.310000000002
4	9723	43.521418309399	0.105000000001
4	9903	44.982441376797	0.211666666669
4	9986	45.184108043464	0.210000000002
4	10075	46.372411501531	0.101666666667
4	10313	48.348345369638	0.101666666667
4	10472	48.498185681796	0.208333333335
4	10661	48.699852348463	0.206666666668
4	10837	48.861678702974	0.310000000002
4	10889	48.927143758984	0.206666666668
4	10931	49.025477092317	0.203333333334
4	11164	49.790822395275	0.311666666669
4	11241	50.153102053296	0.101666666667
4	11328	50.356557608852	0.101666666667
4	11359	50.358224275519	0.103333333334
5	176	5.983873997867	0.215000000003
5	254	6.178873997866	0.206666666668
5	394	6.740449044766	0.208333333335
5	488	6.948782378101	0.213333333336
5	619	7.209170841079	0.203333333334
5	740	7.403546298427	0.311666666669
5	880	7.508220848161	0.101666666667
5	1007	7.605212965094	0.310000000002
5	1052	7.615837507747	0.203333333334
5	1096	7.622504174415	0.210000000002
5	1248	7.776052976279	0.308333333335
5	1324	7.88105297628	0.311666666669
5	1330	7.91988751483	0.310000000002
5	1358	8.240919183807	0.101666666667
5	1370	8.444263628252	0.101677777778
5	1476	8.647596961586	0.101666666667
5	1707	9.541557971999	0.208333333335
5	1764	9.744891305333	0.208333333335
5	1837	12.617432664979	0.305000000001
5	2158	13.122637062255	0.308333333335
5	2261	13.224303728922	0.206666666668
5	2267	13.227499331647	0.305000000001
5	2300	13.235832664982	0.313333333336
5	2338	13.275869279414	0.310000000002
5	2443	13.479202612748	0.310000000002
5	2644	14.715804371464	0.310000000002
5	2679	14.919137704798	0.310000000002
5	2855	15.621548034796	0.208333333335
5	2900	15.823214701463	0.308333333335
5	2960	16.058601943111	0.101666666667
5	3117	16.471935276447	0.311666666669
5	3281	17.331490155494	0.308333333335
5	3370	17.454157898735	0.101666666667
5	3519	17.641490155496	0.313333333336
5	3538	17.66249123207	0.208333333335
5	3724	18.413208986299	0.305000000001
5	3735	18.423657351109	0.101666666667
5	3759	18.430324017777	0.311666666669
5	3954	18.960629805378	0.206666666668
5	3960	18.965629805379	0.313333333336
5	4038	20.343549108101	0.101666666667
5	4168	20.75521577477	0.310000000002
5	4396	23.22540283818	0.315000000003
5	4498	23.523736171513	0.308333333335
5	4611	23.72666415017	0.101666666667
5	4645	23.736664150172	0.315000000003
5	4724	24.368904582357	0.305000000001
5	4909	24.835601355137	0.215000000003
5	4989	24.979004582358	0.305000000001
5	5014	24.984004582359	0.310000000002
5	5147	25.235601355137	0.310000000002
5	5521	26.548178525897	0.308333333335
5	5560	26.597835870274	0.310000000002
5	5584	26.649845192564	0.206666666668
5	5603	26.699502536941	0.208333333335
5	5766	28.496364391756	0.208333333335
5	5835	28.801364391757	0.310000000002
5	6016	29.980659480061	0.308333333335
5	6036	30.083992813395	0.310000000002
5	6052	30.869844865952	0.101666666667
5	6097	31.07322264373	0.101666666667
5	6128	31.074889310397	0.103333333334
5	6379	31.605334390657	0.101666666667
5	6412	31.612001057325	0.210000000002
5	6622	32.62057897072	0.315000000003
5	6697	32.823912304054	0.213333333336
5	6843	33.520422814601	0.215000000003
5	6987	33.922089481268	0.311666666669
5	7174	34.605662168174	0.313333333336
5	7241	34.803995501507	0.206666666668
5	7495	35.492789965411	0.215000000003
5	7532	35.505385868273	0.308333333335
5	7641	35.689456632077	0.208333333335
5	7689	35.815385868275	0.313333333336
5	7818	36.615244275628	0.101666666667
5	7851	36.621910942296	0.210000000002
5	8017	37.764797851259	0.208333333335
5	8086	38.06979785126	0.310000000002
5	8351	39.502554572735	0.310000000002
5	8476	39.677121996928	0.208333333335
5	8492	39.705887906069	0.310000000002
5	8580	39.885455330263	0.213333333336
5	8618	40.003300065574	0.203333333334
5	8784	40.370389094878	0.315000000003
5	8946	40.668722428211	0.308333333335
5	8989	40.745316949881	0.313333333336
5	9040	40.943650283214	0.206666666668
5	9128	41.811806769646	0.101666666667
5	9254	42.020140102981	0.208333333335
5	9260	42.102368557892	0.305000000001
5	9303	42.712568557892	0.305199999999
5	9635	43.330901891229	0.313333333336
5	9707	43.518084976065	0.101666666667
5	9738	43.5264183094	0.313333333336
5	9770	44.363952487906	0.203333333334
5	9790	44.770774710128	0.203488888888
5	9989	45.187441376798	0.213333333336
5	10124	46.579078168199	0.308333333335
5	10529	48.555012036306	0.308333333335
5	10579	48.599852348463	0.310000000002
5	10670	48.70227164835	0.305000000001
5	10754	48.803185681797	0.310000000002
5	10840	48.865012036308	0.313333333336
5	10939	49.028810425651	0.206666666668
5	10945	49.033810425652	0.313333333336
5	11167	49.794155728609	0.315000000003
6	197	6.073873997865	0.101666666667
6	211	6.075540664532	0.306666666668
6	325	6.633782378098	0.101666666667
6	515	7.040449044766	0.305000000001
6	848	7.498546298426	0.406666666668
6	852	7.500212965093	0.205000000001
6	1041	7.611554181495	0.205000000001
6	1199	7.719170841081	0.306666666668
6	1233	7.772719642945	0.305000000001
6	1267	7.813220848162	0.203333333334
6	1333	7.920837507748	0.305000000001
6	1351	7.976052976279	0.406666666668
6	1535	8.749263628253	0.203333333334
6	1553	8.755930294921	0.311666666669
6	1630	9.377544083832	0.101666666667
6	1640	9.434891305331	0.101666666667
6	1770	9.841557971999	0.305000000001
6	2134	13.119303728921	0.101666666667
6	2148	13.120970395588	0.306666666668
6	2201	13.169202612746	0.203333333334
6	2360	13.330832664981	0.408333333335
6	2393	13.37253594608	0.203333333334
6	2449	13.532499331648	0.305000000001
6	2566	14.609137704796	0.203333333334
6	2658	14.81247103813	0.203333333334
6	2868	15.718214701462	0.305000000001
6	2897	15.819881368129	0.305000000001
6	2995	16.160268609778	0.203333333334
6	3127	16.566935276446	0.406666666668
6	3134	16.718156822158	0.305000000001
6	3255	17.32815682216	0.305000000001
6	3277	17.329823488827	0.306666666668
6	3463	17.555824565402	0.203333333334
6	3553	17.759157898736	0.305000000001
6	3695	18.323657351109	0.205000000001
6	3773	18.525324017776	0.203333333334
6	3898	18.855629805377	0.101666666667
6	3912	18.857296472044	0.205000000001
6	4094	20.446882441435	0.205000000001
6	4147	20.648549108102	0.203333333334
6	4186	22.300269504843	0.305000000001
6	4222	22.910402838177	0.305133333333
6	4272	23.014864150169	0.203333333334
6	4451	23.421664150169	0.203466666666
6	4492	23.520402838179	0.305000000001
6	4661	23.828330816837	0.203333333334
6	4965	24.927268021802	0.306666666668
6	4990	24.979004582358	0.305000000001
6	5097	25.128934688469	0.203333333334
6	5153	25.284004582359	0.305000000001
6	5437	26.491169203606	0.203333333334
6	5497	26.544845192563	0.101666666667
6	5511	26.54651185923	0.306666666668
6	5570	26.600550242133	0.305000000001
6	5612	26.796169203607	0.305000000001
6	5779	28.593031058422	0.305000000001
6	5814	28.694697725089	0.203333333334
6	6006	29.977326146727	0.203333333334
6	6033	29.985659480062	0.313333333336
6	6161	31.174889310397	0.203333333334
6	6248	31.378222643731	0.305000000001
6	6422	31.695478970716	0.305000000001
6	6430	31.707001057324	0.203333333334
6	6443	31.713667723992	0.311666666669
6	6468	32.305578970717	0.3051
6	6712	32.915578970719	0.305000000001
6	6881	33.612089481266	0.306666666668
6	7005	34.017089481267	0.406666666668
6	7194	34.698995501506	0.101666666667
6	7208	34.700662168173	0.408333333335
6	7253	34.891919201605	0.305000000001
6	7506	35.502052534939	0.305000000001
6	7528	35.503719201606	0.306666666668
6	7561	35.584456632076	0.306666666668
6	7676	35.786123298743	0.305000000001
6	7863	36.716910942295	0.203333333334
6	7876	36.723577608963	0.311666666669
6	8030	37.861464517925	0.305000000001
6	8065	37.963131184592	0.203333333334
6	8234	39.395887906067	0.203333333334
6	8284	39.445089094873	0.305000000001
6	8378	39.57045533026	0.101666666667
6	8413	39.599221239401	0.203333333334
6	8603	39.977121996928	0.305000000001
6	8625	40.055389094875	0.305300000001
6	8943	40.665389094877	0.305000000001
6	9001	40.838650283213	0.101666666667
6	9015	40.84031694988	0.408333333335
6	9195	41.913473436313	0.203333333334
6	9266	42.116806769647	0.305000000001
6	9277	42.407368557893	0.305000000001
6	9438	43.017568557893	0.305000000001
6	9460	43.01923522456	0.306666666668
6	9746	43.619751642732	0.203333333334
6	9759	43.6264183094	0.413333333336
6	9928	45.077441376796	0.306666666668
6	10000	45.279108043463	0.305000000001
6	10121	46.575744834865	0.305000000001
6	10187	47.941445369639	0.305000000001
6	10378	48.397271648349	0.305000000001
6	10437	48.493185681795	0.203333333334
6	10503	48.551678702972	0.305000000001
6	10525	48.553345369639	0.306666666668
6	10637	48.66542239527	0.406666666668
6	10653	48.696519015129	0.203333333334
6	10865	48.92381042565	0.101666666667
6	10879	48.925477092317	0.205000000001
6	11017	49.479155728606	0.407066666668
7	200	6.073873997865	0.101666666667
7	235	6.088873997868	0.320000000004
7	327	6.633782378098	0.101666666667
7	456	6.888546298424	0.203333333334
7	527	7.053782378102	0.318333333337
7	633	7.295212965092	0.203333333334
7	671	7.300212965093	0.208333333335
7	954	7.569386309611	0.101666666667
7	1075	7.616554181496	0.210000000002
7	1091	7.619170841081	0.206666666668
7	1247	7.776052976279	0.206666666668
7	1280	7.818220848163	0.208333333335
7	1348	7.934170841084	0.318333333337
7	1547	8.754263628254	0.208333333335
7	1560	8.764263628256	0.320000000004
7	1642	9.434891305331	0.101666666667
7	1761	9.743224638666	0.206666666668
7	1855	12.762513723856	0.203333333334
7	1911	12.915970395587	0.101666666667
7	2137	13.119303728921	0.101666666667
7	2183	13.129165998314	0.206666666668
7	2200	13.169202612746	0.203333333334
7	2245	13.175869279414	0.210000000002
7	2461	13.545832664984	0.318333333337
7	2472	13.99909326035	0.203333333334
7	2492	14.405804371462	0.203377777778
7	2671	14.817471038131	0.208333333335
7	2823	15.616548034795	0.101666666667
7	2854	15.621548034796	0.208333333335
7	3031	16.165268609779	0.208333333335
7	3090	16.366935276446	0.206666666668
7	3194	17.124823488826	0.101666666667
7	3454	17.54482348883	0.21666666667
7	3497	17.560824565403	0.208333333335
7	3535	17.660824565403	0.206666666668
7	3708	18.326990684443	0.208333333335
7	3765	18.448918694265	0.101666666667
7	3783	18.530324017777	0.208333333335
7	3792	18.652296472043	0.101711111111
7	3901	18.855629805377	0.101666666667
7	3987	20.038460219212	0.203333333334
7	4068	20.445215774768	0.203333333334
7	4107	20.451882441436	0.210000000002
7	4347	23.128736171514	0.218333333337
7	4411	23.317069504845	0.101666666667
7	4596	23.639997483506	0.218333333337
7	4674	23.833330816838	0.208333333335
7	4860	24.775671249024	0.101666666667
7	4984	24.940601355138	0.320000000004
7	5110	25.13393468847	0.208333333335
7	5165	25.297337915695	0.318333333337
7	5317	26.341511859229	0.101666666667
7	5481	26.497835870274	0.210000000002
7	5500	26.544845192563	0.101666666667
7	5600	26.697835870274	0.206666666668
7	5627	27.865608483188	0.101666666667
7	5646	28.084586613977	0.203333333334
7	5728	28.491364391755	0.203333333334
7	5765	28.496364391756	0.208333333335
7	5899	29.773992813393	0.101666666667
7	6024	29.982326146728	0.208333333335
7	6184	31.179889310398	0.208333333335
7	6263	31.391555977067	0.318333333337
7	6401	31.608667723991	0.206666666668
7	6440	31.712001057325	0.208333333335
7	6578	32.523912304054	0.218333333337
7	6724	32.928912304055	0.318333333337
7	6900	33.625422814602	0.320000000004
7	6958	33.817089481267	0.206666666668
7	7116	34.498995501506	0.206666666668
7	7197	34.698995501506	0.101666666667
7	7359	35.298719201605	0.101666666667
7	7590	35.597789965412	0.320000000004
7	7638	35.68778996541	0.206666666668
7	7673	35.718719201609	0.21666666667
7	7840	36.618577608962	0.206666666668
7	7873	36.721910942296	0.208333333335
7	7897	37.352997851258	0.203333333334
7	7979	37.759797851258	0.203333333334
7	8016	37.764797851259	0.208333333335
7	8100	38.785732350511	0.203333333334
7	8142	39.192554572733	0.203488888888
7	8380	39.57045533026	0.101666666667
7	8426	39.604221239402	0.208333333335
7	8615	39.990455330264	0.318333333337
7	8737	40.273722428212	0.218333333337
7	8832	40.462055761543	0.101666666667
7	8928	40.638650283213	0.206666666668
7	9004	40.838650283213	0.101666666667
7	9229	41.918473436314	0.208333333335
7	9251	42.018473436314	0.206666666668
7	9480	43.032568557896	0.320000000004
7	9483	43.084522343406	0.203333333334
7	9584	43.234235224563	0.21666666667
7	9677	43.419751642732	0.206666666668
7	9756	43.624751642733	0.208333333335
7	9968	45.090774710132	0.320000000004
7	10012	45.292441376799	0.318333333337
7	10076	46.372411501531	0.101666666667
7	10201	48.086341237349	0.203333333334
7	10314	48.348345369638	0.101666666667
7	10436	48.493185681795	0.203333333334
7	10485	48.499852348463	0.210000000002
7	10493	48.517043758982	0.101666666667
7	10680	48.720477092316	0.101766666667
7	10746	48.768345369642	0.21666666667
7	10868	48.92381042565	0.101666666667
7	11140	49.697489061943	0.218333333337
7	11226	50.092089061936	0.203333333334
7	11331	50.356557608852	0.101666666667
7	11488	50.498955728604	0.203533333334
8	219	6.077207331199	0.105000000001
8	232	6.087207331201	0.318333333337
8	343	6.637115711432	0.105000000001
8	524	7.052115711435	0.31666666667
8	612	7.20322084816	0.203333333334
8	664	7.298546298426	0.206666666668
8	864	7.503546298427	0.208333333335
8	993	7.572719642945	0.105000000001
8	1015	7.609887514828	0.203333333334
8	1049	7.614887514829	0.208333333335
8	1082	7.617504174414	0.205000000001
8	1241	7.774386309612	0.205000000001
8	1345	7.932504174417	0.31666666667
8	1542	8.752596961587	0.206666666668
8	1557	8.762596961589	0.318333333337
8	1658	9.438224638665	0.105000000001
8	1758	9.741557971999	0.205000000001
8	1825	12.559180390522	0.203333333334
8	1933	12.920970395588	0.106666666668
8	1971	12.965869279412	0.203355555556
8	2156	13.122637062255	0.105000000001
8	2176	13.127499331647	0.205000000001
8	2406	13.377535946081	0.208333333335
8	2458	13.544165998317	0.31666666667
8	2482	14.202426593684	0.203333333334
8	2565	14.609137704796	0.203333333334
8	2610	14.615804371464	0.210000000002
8	2841	15.619881368129	0.105000000001
8	2852	15.621548034796	0.208333333335
8	3026	16.163601943112	0.206666666668
8	3086	16.365268609779	0.205000000001
8	3216	17.129823488827	0.106666666668
8	3451	17.543156822163	0.215000000003
8	3487	17.559157898736	0.206666666668
8	3532	17.659157898736	0.205000000001
8	3544	17.711901795552	0.203333333334
8	3582	18.108208986298	0.305000000001
8	3588	18.118657351108	0.203422222222
8	3780	18.52865735111	0.206666666668
8	3920	18.858963138711	0.105000000001
8	3929	18.860629805378	0.208333333335
8	4102	20.450215774769	0.208333333335
8	4160	20.653549108103	0.208333333335
8	4344	23.127069504847	0.21666666667
8	4431	23.320402838179	0.105000000001
8	4593	23.638330816839	0.21666666667
8	4671	23.831664150171	0.206666666668
8	4718	24.315468021801	0.305000000001
8	4875	24.779004582358	0.105000000001
8	4942	24.925601355135	0.305000000001
8	4981	24.938934688471	0.318333333337
8	5162	25.295671249028	0.31666666667
8	5190	25.881080314716	0.203333333334
8	5269	26.287835870272	0.203422222222
8	5339	26.34651185923	0.106666666668
8	5519	26.548178525897	0.105000000001
8	5597	26.696169203607	0.205000000001
8	5758	28.494697725089	0.206666666668
8	5827	28.69969772509	0.208333333335
8	5851	29.570592813393	0.101666666667
8	5896	29.773992813393	0.101666666667
8	5942	29.778992813394	0.106666666668
8	6177	31.178222643731	0.206666666668
8	6257	31.3898893104	0.31666666667
8	6391	31.607001057324	0.205000000001
8	6437	31.710334390658	0.206666666668
8	6575	32.522245637387	0.21666666667
8	6721	32.927245637388	0.31666666667
8	6897	33.623756147935	0.318333333337
8	6954	33.8154228146	0.205000000001
8	7109	34.497328834839	0.205000000001
8	7214	34.70232883484	0.105000000001
8	7381	35.303719201606	0.106666666668
8	7587	35.596123298745	0.318333333337
8	7635	35.686123298743	0.205000000001
8	7670	35.717052534942	0.215000000003
8	7830	36.616910942295	0.205000000001
8	7870	36.720244275629	0.206666666668
8	8009	37.763131184592	0.206666666668
8	8078	37.968131184593	0.208333333335
8	8118	38.989065683845	0.203333333334
8	8233	39.395887906067	0.203333333334
8	8278	39.402554572735	0.210000000002
8	8396	39.573788663594	0.105000000001
8	8612	39.988788663597	0.31666666667
8	8734	40.272055761545	0.21666666667
8	8849	40.465389094877	0.105000000001
8	8921	40.636983616546	0.205000000001
8	9021	40.841983616547	0.105000000001
8	9219	41.916806769647	0.206666666668
8	9248	42.016806769647	0.205000000001
8	9476	43.030901891229	0.318333333337
8	9581	43.232568557896	0.215000000003
8	9669	43.418084976065	0.205000000001
8	9753	43.623084976066	0.206666666668
8	9964	45.089108043465	0.318333333337
8	10009	45.290774710132	0.31666666667
8	10090	46.375744834865	0.105000000001
8	10144	46.965599704699	0.203333333334
8	10181	47.883007904015	0.203333333334
8	10263	48.289852348461	0.203511111112
8	10337	48.353345369639	0.106666666668
8	10667	48.70151901513	0.208333333335
8	10740	48.766678702975	0.215000000003
8	10887	48.927143758984	0.105000000001
8	10897	48.928810425651	0.208333333335
8	11137	49.695822395276	0.21666666667
8	11370	50.359890942186	0.105000000001
9	221	6.077207331199	0.308333333335
9	264	6.277207331199	0.305000000001
9	354	6.68521296509	0.203333333334
9	420	6.837115711432	0.305000000001
9	518	7.042115711433	0.306666666668
9	530	7.091879631758	0.203333333334
9	694	7.366041865166	0.101666666667
9	849	7.498546298426	0.203333333334
9	908	7.51417084108	0.101666666667
9	951	7.569386309611	0.101666666667
9	982	7.571052976278	0.103333333334
9	1016	7.609887514828	0.203333333334
9	1268	7.813220848162	0.203333333334
9	1339	7.922504174415	0.306666666668
9	1536	8.749263628253	0.203333333334
9	1548	8.754263628254	0.310000000002
9	1721	9.638224638665	0.305000000001
9	1723	9.638224638665	0.101666666667
9	1793	12.312432664978	0.305000000001
9	1909	12.915970395587	0.101666666667
9	1937	12.922499331646	0.305066666667
9	2224	13.170869279413	0.205000000001
9	2350	13.322637062255	0.305000000001
9	2394	13.37253594608	0.203333333334
9	2452	13.534165998315	0.306666666668
9	2589	14.610804371463	0.205000000001
9	2659	14.81247103813	0.203333333334
9	2748	15.514881368128	0.101666666667
9	2821	15.616548034795	0.101666666667
9	2891	15.753535276444	0.203333333334
9	2994	16.160268609778	0.203333333334
9	3018	16.161935276445	0.205000000001
9	3192	17.124823488826	0.101666666667
9	3465	17.555824565402	0.101666666667
9	3476	17.557491232069	0.205000000001
9	3550	17.734823488828	0.406666666668
9	3670	18.321990684442	0.203333333334
9	3774	18.525324017776	0.203333333334
9	3897	18.855629805377	0.203333333334
9	3966	19.058963138711	0.305000000001
9	4069	20.445215774768	0.203333333334
9	4148	20.648549108102	0.203333333334
9	4310	23.107863378677	0.101666666667
9	4409	23.317069504845	0.101666666667
9	4421	23.318736171512	0.408333333335
9	4662	23.828330816837	0.203333333334
9	4668	23.829997483504	0.408333333335
9	4859	24.775671249024	0.101666666667
9	4970	24.928934688469	0.308333333335
9	5098	25.128934688469	0.203333333334
9	5156	25.285671249026	0.306666666668
9	5315	26.341511859229	0.101666666667
9	5461	26.492835870273	0.205000000001
9	5537	26.592835870273	0.101666666667
9	5609	26.748178525897	0.305000000001
9	5695	28.389697725088	0.101666666667
9	5815	28.694697725089	0.203333333334
9	5897	29.773992813393	0.101666666667
9	6007	29.977326146727	0.203333333334
9	6162	31.174889310397	0.203333333334
9	6251	31.379889310398	0.306666666668
9	6309	31.50366772399	0.101666666667
9	6431	31.707001057324	0.203333333334
9	6644	32.713912304052	0.408333333335
9	6715	32.917245637386	0.306666666668
9	6727	33.000289481265	0.305000000001
9	6858	33.610422814599	0.305000000001
9	6886	33.613756147933	0.308333333335
9	6903	33.682128834838	0.305000000001
9	6999	33.999485041348	0.101666666667
9	7023	34.292328834838	0.305199999999
9	7259	34.90232883484	0.305000000001
9	7357	35.298719201605	0.101666666667
9	7550	35.582789965409	0.101666666667
9	7572	35.586123298743	0.308333333335
9	7695	35.908719201607	0.406666666668
9	7752	36.513577608961	0.101666666667
9	7864	36.716910942295	0.203333333334
9	7946	37.658131184591	0.101666666667
9	8066	37.963131184592	0.203333333334
9	8257	39.397554572734	0.205000000001
9	8414	39.599221239401	0.203333333334
9	8510	39.773788663594	0.305000000001
9	8552	39.821716949876	0.305000000001
9	8606	39.978788663595	0.306666666668
9	8790	40.431983616545	0.305266666668
9	8830	40.462055761543	0.101666666667
9	8842	40.46372242821	0.408333333335
9	9046	41.041983616547	0.305000000001
9	9150	41.813222928604	0.203333333334
9	9197	41.913473436313	0.101666666667
9	9208	41.91514010298	0.205000000001
9	9340	42.806173864952	0.203333333334
9	9385	42.881189010072	0.203333333334
9	9464	43.020901891227	0.308333333335
9	9525	43.213084976064	0.203577777778
9	9686	43.424235224561	0.406666666668
9	9747	43.619751642732	0.203333333334
9	9935	45.079108043463	0.308333333335
9	10003	45.28077471013	0.306666666668
9	10019	45.965633723752	0.101666666667
9	10031	46.169078168197	0.101777777778
9	10074	46.372411501531	0.101666666667
9	10134	46.762266371365	0.203333333334
9	10312	48.348345369638	0.101666666667
9	10460	48.494852348462	0.205000000001
9	10654	48.696519015129	0.203333333334
9	10864	48.92381042565	0.203333333334
9	10914	48.95834536964	0.406666666668
9	10955	49.072089061938	0.406666666668
9	10966	49.127143758984	0.305000000001
9	11182	49.885822395274	0.406666666668
9	11185	49.887489061941	0.408333333335
9	11305	50.29542239527	0.203333333334
9	11330	50.356557608852	0.101666666667
9	11430	50.458224275519	0.101666666667

