version 2
run General-1-20190527-17:58:49-13792
attr configname General
attr datetime 20190527-17:58:49
attr experiment General
attr inifile omnetpp.ini
attr iterationvars ""
attr iterationvarsf ""
attr measurement ""
attr network networks.Net5
attr processid 13792
attr repetition 1
attr replication #1
attr resultdir results
attr runnumber 1
attr seedset 1
param **.appType "\"App\""
param **.app.packetLength "1500 bytes"
param **.app.totalNodes 50
param **.destAddresses "\"0\""
param **.sendIaTime "uniform(5s, 10s)"
param **.sendIaTimeEvil "uniform(1ms, 10ms)"

scalar Net5.rte[0].app hopCount:mean 2.9014084507042
attr interpolationmode none
attr title "hop count of arrived packets, mean"
scalar Net5.rte[0].app hopCount:max 5
attr interpolationmode none
attr title "hop count of arrived packets, max"
scalar Net5.rte[0].app endToEndDelay:mean 0.29598644835466
attr interpolationmode none
attr title "end-to-end delay of arrived packets, mean"
attr unit s
scalar Net5.rte[0].app endToEndDelay:max 0.508333333335
attr interpolationmode none
attr title "end-to-end delay of arrived packets, max"
attr unit s
statistic Net5.rte[0].routing outputIf:histogram
field count 271
field mean 0.96309963099631
field stddev 1.5295012456377
field min -1
field max 3
field sum 261
field sqrsum 883
attr interpolationmode none
attr title "output interface for each routed packet, histogram"
bin	-inf	0
bin	-2	0
bin	-1	71
bin	0	45
bin	1	41
bin	2	51
bin	3	63
bin	4	0
scalar Net5.rte[0].routing drop:count 0
attr interpolationmode none
attr title "dropped packet byte length, count"
attr unit bytes
scalar Net5.rte[0].routing drop:sum 0
attr interpolationmode none
attr title "dropped packet byte length, sum"
attr unit bytes
scalar Net5.rte[0].queue[0] rxBytes:count 59
attr interpolationmode none
attr title "received packet byte length, count"
attr unit bytes
scalar Net5.rte[0].queue[0] rxBytes:sum 88510
attr interpolationmode none
attr title "received packet byte length, sum"
attr unit bytes
statistic Net5.rte[0].queue[0] rxBytes:histogram
field count 59
field mean 1500.1694915254
field stddev 1.3018891098367
field min 1500
field max 1510
field sum 88510
field sqrsum 132780100
attr interpolationmode none
attr title "received packet byte length, histogram"
attr unit bytes
bin	-inf	0
bin	1497	0
bin	1498	0
bin	1499	0
bin	1500	58
bin	1501	0
bin	1502	0
bin	1503	0
bin	1504	0
bin	1505	0
bin	1506	0
bin	1507	0
bin	1508	0
bin	1509	0
bin	1510	1
bin	1511	0
bin	1512	0
bin	1513	0
scalar Net5.rte[0].queue[0] txBytes:count 45
attr interpolationmode none
attr title "transmitting packet byte length, count"
attr unit bytes
scalar Net5.rte[0].queue[0] txBytes:sum 67500
attr interpolationmode none
attr title "transmitting packet byte length, sum"
attr unit bytes
statistic Net5.rte[0].queue[0] txBytes:histogram
field count 45
field mean 1500
field stddev 0
field min 1500
field max 1500
field sum 67500
field sqrsum 101250000
attr interpolationmode none
attr title "transmitting packet byte length, histogram"
attr unit bytes
bin	-inf	0
bin	1499	0
bin	1500	45
bin	1501	0
scalar Net5.rte[0].queue[0] busy:timeavg 0.0058425586117649
attr interpolationmode sample-hold
attr title "server busy state, timeavg"
scalar Net5.rte[0].queue[0] qlen:timeavg 7.4188781660477e-005
attr interpolationmode sample-hold
attr title "queue length, timeavg"
scalar Net5.rte[0].queue[0] qlen:max 1
attr interpolationmode sample-hold
attr title "queue length, max"
scalar Net5.rte[0].queue[0] drop:count 0
attr interpolationmode none
attr title "dropped packet byte length, count"
attr unit bytes
scalar Net5.rte[0].queue[0] drop:sum 0
attr interpolationmode none
attr title "dropped packet byte length, sum"
attr unit bytes
scalar Net5.rte[0].queue[1] rxBytes:count 59
attr interpolationmode none
attr title "received packet byte length, count"
attr unit bytes
scalar Net5.rte[0].queue[1] rxBytes:sum 88500
attr interpolationmode none
attr title "received packet byte length, sum"
attr unit bytes
statistic Net5.rte[0].queue[1] rxBytes:histogram
field count 59
field mean 1500
field stddev 0
field min 1500
field max 1500
field sum 88500
field sqrsum 132750000
attr interpolationmode none
attr title "received packet byte length, histogram"
attr unit bytes
bin	-inf	0
bin	1499	0
bin	1500	59
bin	1501	0
scalar Net5.rte[0].queue[1] txBytes:count 41
attr interpolationmode none
attr title "transmitting packet byte length, count"
attr unit bytes
scalar Net5.rte[0].queue[1] txBytes:sum 61500
attr interpolationmode none
attr title "transmitting packet byte length, sum"
attr unit bytes
statistic Net5.rte[0].queue[1] txBytes:histogram
field count 41
field mean 1500
field stddev 0
field min 1500
field max 1500
field sum 61500
field sqrsum 92250000
attr interpolationmode none
attr title "transmitting packet byte length, histogram"
attr unit bytes
bin	-inf	0
bin	1499	0
bin	1500	41
bin	1501	0
scalar Net5.rte[0].queue[1] busy:timeavg 0.0053232200684969
attr interpolationmode sample-hold
attr title "server busy state, timeavg"
scalar Net5.rte[0].queue[1] qlen:timeavg 0
attr interpolationmode sample-hold
attr title "queue length, timeavg"
scalar Net5.rte[0].queue[1] qlen:max 0
attr interpolationmode sample-hold
attr title "queue length, max"
scalar Net5.rte[0].queue[1] drop:count 0
attr interpolationmode none
attr title "dropped packet byte length, count"
attr unit bytes
scalar Net5.rte[0].queue[1] drop:sum 0
attr interpolationmode none
attr title "dropped packet byte length, sum"
attr unit bytes
scalar Net5.rte[0].queue[2] rxBytes:count 88
attr interpolationmode none
attr title "received packet byte length, count"
attr unit bytes
scalar Net5.rte[0].queue[2] rxBytes:sum 132000
attr interpolationmode none
attr title "received packet byte length, sum"
attr unit bytes
statistic Net5.rte[0].queue[2] rxBytes:histogram
field count 88
field mean 1500
field stddev 0
field min 1500
field max 1500
field sum 132000
field sqrsum 198000000
attr interpolationmode none
attr title "received packet byte length, histogram"
attr unit bytes
bin	-inf	0
bin	1499	0
bin	1500	88
bin	1501	0
scalar Net5.rte[0].queue[2] txBytes:count 51
attr interpolationmode none
attr title "transmitting packet byte length, count"
attr unit bytes
scalar Net5.rte[0].queue[2] txBytes:sum 76510
attr interpolationmode none
attr title "transmitting packet byte length, sum"
attr unit bytes
statistic Net5.rte[0].queue[2] txBytes:histogram
field count 51
field mean 1500.1960784314
field stddev 1.4002800840113
field min 1500
field max 1510
field sum 76510
field sqrsum 114780100
attr interpolationmode none
attr title "transmitting packet byte length, histogram"
attr unit bytes
bin	-inf	0
bin	1497	0
bin	1498	0
bin	1499	0
bin	1500	50
bin	1501	0
bin	1502	0
bin	1503	0
bin	1504	0
bin	1505	0
bin	1506	0
bin	1507	0
bin	1508	0
bin	1509	0
bin	1510	1
bin	1511	0
bin	1512	0
bin	1513	0
scalar Net5.rte[0].queue[2] busy:timeavg 0.0066224319908969
attr interpolationmode sample-hold
attr title "server busy state, timeavg"
scalar Net5.rte[0].queue[2] qlen:timeavg 0
attr interpolationmode sample-hold
attr title "queue length, timeavg"
scalar Net5.rte[0].queue[2] qlen:max 0
attr interpolationmode sample-hold
attr title "queue length, max"
scalar Net5.rte[0].queue[2] drop:count 0
attr interpolationmode none
attr title "dropped packet byte length, count"
attr unit bytes
scalar Net5.rte[0].queue[2] drop:sum 0
attr interpolationmode none
attr title "dropped packet byte length, sum"
attr unit bytes
scalar Net5.rte[0].queue[3] rxBytes:count 64
attr interpolationmode none
attr title "received packet byte length, count"
attr unit bytes
scalar Net5.rte[0].queue[3] rxBytes:sum 96000
attr interpolationmode none
attr title "received packet byte length, sum"
attr unit bytes
statistic Net5.rte[0].queue[3] rxBytes:histogram
field count 64
field mean 1500
field stddev 0
field min 1500
field max 1500
field sum 96000
field sqrsum 144000000
attr interpolationmode none
attr title "received packet byte length, histogram"
attr unit bytes
bin	-inf	0
bin	1499	0
bin	1500	64
bin	1501	0
scalar Net5.rte[0].queue[3] txBytes:count 63
attr interpolationmode none
attr title "transmitting packet byte length, count"
attr unit bytes
scalar Net5.rte[0].queue[3] txBytes:sum 94500
attr interpolationmode none
attr title "transmitting packet byte length, sum"
attr unit bytes
statistic Net5.rte[0].queue[3] txBytes:histogram
field count 63
field mean 1500
field stddev 0
field min 1500
field max 1500
field sum 94500
field sqrsum 141750000
attr interpolationmode none
attr title "transmitting packet byte length, histogram"
attr unit bytes
bin	-inf	0
bin	1499	0
bin	1500	63
bin	1501	0
scalar Net5.rte[0].queue[3] busy:timeavg 0.0081795820564709
attr interpolationmode sample-hold
attr title "server busy state, timeavg"
scalar Net5.rte[0].queue[3] qlen:timeavg 0
attr interpolationmode sample-hold
attr title "queue length, timeavg"
scalar Net5.rte[0].queue[3] qlen:max 0
attr interpolationmode sample-hold
attr title "queue length, max"
scalar Net5.rte[0].queue[3] drop:count 0
attr interpolationmode none
attr title "dropped packet byte length, count"
attr unit bytes
scalar Net5.rte[0].queue[3] drop:sum 0
attr interpolationmode none
attr title "dropped packet byte length, sum"
attr unit bytes
scalar Net5.rte[1].app hopCount:mean 3.3424657534247
attr interpolationmode none
attr title "hop count of arrived packets, mean"
scalar Net5.rte[1].app hopCount:max 5
attr interpolationmode none
attr title "hop count of arrived packets, max"
scalar Net5.rte[1].app endToEndDelay:mean 0.34156740273878
attr interpolationmode none
attr title "end-to-end delay of arrived packets, mean"
attr unit s
scalar Net5.rte[1].app endToEndDelay:max 0.51666666667
attr interpolationmode none
attr title "end-to-end delay of arrived packets, max"
attr unit s
statistic Net5.rte[1].routing outputIf:histogram
field count 302
field mean 0.81788079470199
field stddev 1.4317048867532
field min -1
field max 3
field sum 247
field sqrsum 819
attr interpolationmode none
attr title "output interface for each routed packet, histogram"
bin	-inf	0
bin	-2	0
bin	-1	73
bin	0	70
bin	1	50
bin	2	57
bin	3	52
bin	4	0
scalar Net5.rte[1].routing drop:count 0
attr interpolationmode none
attr title "dropped packet byte length, count"
attr unit bytes
scalar Net5.rte[1].routing drop:sum 0
attr interpolationmode none
attr title "dropped packet byte length, sum"
attr unit bytes
scalar Net5.rte[1].queue[0] rxBytes:count 51
attr interpolationmode none
attr title "received packet byte length, count"
attr unit bytes
scalar Net5.rte[1].queue[0] rxBytes:sum 76500
attr interpolationmode none
attr title "received packet byte length, sum"
attr unit bytes
statistic Net5.rte[1].queue[0] rxBytes:histogram
field count 51
field mean 1500
field stddev 0
field min 1500
field max 1500
field sum 76500
field sqrsum 114750000
attr interpolationmode none
attr title "received packet byte length, histogram"
attr unit bytes
bin	-inf	0
bin	1499	0
bin	1500	51
bin	1501	0
scalar Net5.rte[1].queue[0] txBytes:count 70
attr interpolationmode none
attr title "transmitting packet byte length, count"
attr unit bytes
scalar Net5.rte[1].queue[0] txBytes:sum 105000
attr interpolationmode none
attr title "transmitting packet byte length, sum"
attr unit bytes
statistic Net5.rte[1].queue[0] txBytes:histogram
field count 70
field mean 1500
field stddev 0
field min 1500
field max 1500
field sum 105000
field sqrsum 157500000
attr interpolationmode none
attr title "transmitting packet byte length, histogram"
attr unit bytes
bin	-inf	0
bin	1499	0
bin	1500	70
bin	1501	0
scalar Net5.rte[1].queue[0] busy:timeavg 0.0090884245071899
attr interpolationmode sample-hold
attr title "server busy state, timeavg"
scalar Net5.rte[1].queue[0] qlen:timeavg 0.00011497095988507
attr interpolationmode sample-hold
attr title "queue length, timeavg"
scalar Net5.rte[1].queue[0] qlen:max 1
attr interpolationmode sample-hold
attr title "queue length, max"
scalar Net5.rte[1].queue[0] drop:count 0
attr interpolationmode none
attr title "dropped packet byte length, count"
attr unit bytes
scalar Net5.rte[1].queue[0] drop:sum 0
attr interpolationmode none
attr title "dropped packet byte length, sum"
attr unit bytes
scalar Net5.rte[1].queue[1] rxBytes:count 58
attr interpolationmode none
attr title "received packet byte length, count"
attr unit bytes
scalar Net5.rte[1].queue[1] rxBytes:sum 87000
attr interpolationmode none
attr title "received packet byte length, sum"
attr unit bytes
statistic Net5.rte[1].queue[1] rxBytes:histogram
field count 58
field mean 1500
field stddev 0
field min 1500
field max 1500
field sum 87000
field sqrsum 130500000
attr interpolationmode none
attr title "received packet byte length, histogram"
attr unit bytes
bin	-inf	0
bin	1499	0
bin	1500	58
bin	1501	0
scalar Net5.rte[1].queue[1] txBytes:count 50
attr interpolationmode none
attr title "transmitting packet byte length, count"
attr unit bytes
scalar Net5.rte[1].queue[1] txBytes:sum 75000
attr interpolationmode none
attr title "transmitting packet byte length, sum"
attr unit bytes
statistic Net5.rte[1].queue[1] txBytes:histogram
field count 50
field mean 1500
field stddev 0
field min 1500
field max 1500
field sum 75000
field sqrsum 112500000
attr interpolationmode none
attr title "transmitting packet byte length, histogram"
attr unit bytes
bin	-inf	0
bin	1499	0
bin	1500	50
bin	1501	0
scalar Net5.rte[1].queue[1] busy:timeavg 0.0064917317908499
attr interpolationmode sample-hold
attr title "server busy state, timeavg"
scalar Net5.rte[1].queue[1] qlen:timeavg 0
attr interpolationmode sample-hold
attr title "queue length, timeavg"
scalar Net5.rte[1].queue[1] qlen:max 0
attr interpolationmode sample-hold
attr title "queue length, max"
scalar Net5.rte[1].queue[1] drop:count 0
attr interpolationmode none
attr title "dropped packet byte length, count"
attr unit bytes
scalar Net5.rte[1].queue[1] drop:sum 0
attr interpolationmode none
attr title "dropped packet byte length, sum"
attr unit bytes
scalar Net5.rte[1].queue[2] rxBytes:count 86
attr interpolationmode none
attr title "received packet byte length, count"
attr unit bytes
scalar Net5.rte[1].queue[2] rxBytes:sum 129000
attr interpolationmode none
attr title "received packet byte length, sum"
attr unit bytes
statistic Net5.rte[1].queue[2] rxBytes:histogram
field count 86
field mean 1500
field stddev 0
field min 1500
field max 1500
field sum 129000
field sqrsum 193500000
attr interpolationmode none
attr title "received packet byte length, histogram"
attr unit bytes
bin	-inf	0
bin	1499	0
bin	1500	86
bin	1501	0
scalar Net5.rte[1].queue[2] txBytes:count 57
attr interpolationmode none
attr title "transmitting packet byte length, count"
attr unit bytes
scalar Net5.rte[1].queue[2] txBytes:sum 85500
attr interpolationmode none
attr title "transmitting packet byte length, sum"
attr unit bytes
statistic Net5.rte[1].queue[2] txBytes:histogram
field count 57
field mean 1500
field stddev 0
field min 1500
field max 1500
field sum 85500
field sqrsum 128250000
attr interpolationmode none
attr title "transmitting packet byte length, histogram"
attr unit bytes
bin	-inf	0
bin	1499	0
bin	1500	57
bin	1501	0
scalar Net5.rte[1].queue[2] busy:timeavg 0.0074005742415689
attr interpolationmode sample-hold
attr title "server busy state, timeavg"
scalar Net5.rte[1].queue[2] qlen:timeavg 0
attr interpolationmode sample-hold
attr title "queue length, timeavg"
scalar Net5.rte[1].queue[2] qlen:max 0
attr interpolationmode sample-hold
attr title "queue length, max"
scalar Net5.rte[1].queue[2] drop:count 0
attr interpolationmode none
attr title "dropped packet byte length, count"
attr unit bytes
scalar Net5.rte[1].queue[2] drop:sum 0
attr interpolationmode none
attr title "dropped packet byte length, sum"
attr unit bytes
scalar Net5.rte[1].queue[3] rxBytes:count 102
attr interpolationmode none
attr title "received packet byte length, count"
attr unit bytes
scalar Net5.rte[1].queue[3] rxBytes:sum 153000
attr interpolationmode none
attr title "received packet byte length, sum"
attr unit bytes
statistic Net5.rte[1].queue[3] rxBytes:histogram
field count 102
field mean 1500
field stddev 0
field min 1500
field max 1500
field sum 153000
field sqrsum 229500000
attr interpolationmode none
attr title "received packet byte length, histogram"
attr unit bytes
bin	-inf	0
bin	1499	0
bin	1500	102
bin	1501	0
scalar Net5.rte[1].queue[3] txBytes:count 52
attr interpolationmode none
attr title "transmitting packet byte length, count"
attr unit bytes
scalar Net5.rte[1].queue[3] txBytes:sum 78000
attr interpolationmode none
attr title "transmitting packet byte length, sum"
attr unit bytes
statistic Net5.rte[1].queue[3] txBytes:histogram
field count 52
field mean 1500
field stddev 0
field min 1500
field max 1500
field sum 78000
field sqrsum 117000000
attr interpolationmode none
attr title "transmitting packet byte length, histogram"
attr unit bytes
bin	-inf	0
bin	1499	0
bin	1500	52
bin	1501	0
scalar Net5.rte[1].queue[3] busy:timeavg 0.0067514010624839
attr interpolationmode sample-hold
attr title "server busy state, timeavg"
scalar Net5.rte[1].queue[3] qlen:timeavg 0
attr interpolationmode sample-hold
attr title "queue length, timeavg"
scalar Net5.rte[1].queue[3] qlen:max 0
attr interpolationmode sample-hold
attr title "queue length, max"
scalar Net5.rte[1].queue[3] drop:count 0
attr interpolationmode none
attr title "dropped packet byte length, count"
attr unit bytes
scalar Net5.rte[1].queue[3] drop:sum 0
attr interpolationmode none
attr title "dropped packet byte length, sum"
attr unit bytes
scalar Net5.rte[2].app hopCount:mean 2.6301369863014
attr interpolationmode none
attr title "hop count of arrived packets, mean"
scalar Net5.rte[2].app hopCount:max 4
attr interpolationmode none
attr title "hop count of arrived packets, max"
scalar Net5.rte[2].app endToEndDelay:mean 0.26898636483656
attr interpolationmode none
attr title "end-to-end delay of arrived packets, mean"
attr unit s
scalar Net5.rte[2].app endToEndDelay:max 0.411666666669
attr interpolationmode none
attr title "end-to-end delay of arrived packets, max"
attr unit s
statistic Net5.rte[2].routing outputIf:histogram
field count 525
field mean 1.6
field stddev 1.584755622069
field min -1
field max 4
field sum 840
field sqrsum 2660
attr interpolationmode none
attr title "output interface for each routed packet, histogram"
bin	-inf	0
bin	-3	0
bin	-2	0
bin	-1	73
bin	0	58
bin	1	124
bin	2	90
bin	3	111
bin	4	69
bin	5	0
bin	6	0
scalar Net5.rte[2].routing drop:count 0
attr interpolationmode none
attr title "dropped packet byte length, count"
attr unit bytes
scalar Net5.rte[2].routing drop:sum 0
attr interpolationmode none
attr title "dropped packet byte length, sum"
attr unit bytes
scalar Net5.rte[2].queue[0] rxBytes:count 65
attr interpolationmode none
attr title "received packet byte length, count"
attr unit bytes
scalar Net5.rte[2].queue[0] rxBytes:sum 97510
attr interpolationmode none
attr title "received packet byte length, sum"
attr unit bytes
statistic Net5.rte[2].queue[0] rxBytes:histogram
field count 65
field mean 1500.1538461538
field stddev 1.2403473459065
field min 1500
field max 1510
field sum 97510
field sqrsum 146280100
attr interpolationmode none
attr title "received packet byte length, histogram"
attr unit bytes
bin	-inf	0
bin	1497	0
bin	1498	0
bin	1499	0
bin	1500	64
bin	1501	0
bin	1502	0
bin	1503	0
bin	1504	0
bin	1505	0
bin	1506	0
bin	1507	0
bin	1508	0
bin	1509	0
bin	1510	1
bin	1511	0
bin	1512	0
bin	1513	0
scalar Net5.rte[2].queue[0] txBytes:count 58
attr interpolationmode none
attr title "transmitting packet byte length, count"
attr unit bytes
scalar Net5.rte[2].queue[0] txBytes:sum 87000
attr interpolationmode none
attr title "transmitting packet byte length, sum"
attr unit bytes
statistic Net5.rte[2].queue[0] txBytes:histogram
field count 58
field mean 1500
field stddev 0
field min 1500
field max 1500
field sum 87000
field sqrsum 130500000
attr interpolationmode none
attr title "transmitting packet byte length, histogram"
attr unit bytes
bin	-inf	0
bin	1499	0
bin	1500	58
bin	1501	0
scalar Net5.rte[2].queue[0] busy:timeavg 0.0075304088773859
attr interpolationmode sample-hold
attr title "server busy state, timeavg"
scalar Net5.rte[2].queue[0] qlen:timeavg 0.00092998208540234
attr interpolationmode sample-hold
attr title "queue length, timeavg"
scalar Net5.rte[2].queue[0] qlen:max 2
attr interpolationmode sample-hold
attr title "queue length, max"
scalar Net5.rte[2].queue[0] drop:count 0
attr interpolationmode none
attr title "dropped packet byte length, count"
attr unit bytes
scalar Net5.rte[2].queue[0] drop:sum 0
attr interpolationmode none
attr title "dropped packet byte length, sum"
attr unit bytes
scalar Net5.rte[2].queue[1] rxBytes:count 122
attr interpolationmode none
attr title "received packet byte length, count"
attr unit bytes
scalar Net5.rte[2].queue[1] rxBytes:sum 183030
attr interpolationmode none
attr title "received packet byte length, sum"
attr unit bytes
statistic Net5.rte[2].queue[1] rxBytes:histogram
field count 122
field mean 1500.2459016393
field stddev 1.5551114089194
field min 1500
field max 1510
field sum 183030
field sqrsum 274590300
attr interpolationmode none
attr title "received packet byte length, histogram"
attr unit bytes
bin	-inf	0
bin	1499	0
bin	1500	119
bin	1501	0
bin	1502	0
bin	1503	0
bin	1504	0
bin	1505	0
bin	1506	0
bin	1507	0
bin	1508	0
bin	1509	0
bin	1510	3
bin	1511	0
scalar Net5.rte[2].queue[1] txBytes:count 124
attr interpolationmode none
attr title "transmitting packet byte length, count"
attr unit bytes
scalar Net5.rte[2].queue[1] txBytes:sum 186010
attr interpolationmode none
attr title "transmitting packet byte length, sum"
attr unit bytes
statistic Net5.rte[2].queue[1] txBytes:histogram
field count 124
field mean 1500.0806451613
field stddev 0.89802651010776
field min 1500
field max 1510
field sum 186010
field sqrsum 279030100
attr interpolationmode none
attr title "transmitting packet byte length, histogram"
attr unit bytes
bin	-inf	0
bin	1499	0
bin	1500	123
bin	1501	0
bin	1502	0
bin	1503	0
bin	1504	0
bin	1505	0
bin	1506	0
bin	1507	0
bin	1508	0
bin	1509	0
bin	1510	1
bin	1511	0
scalar Net5.rte[2].queue[1] busy:timeavg 0.016100360405538
attr interpolationmode sample-hold
attr title "server busy state, timeavg"
scalar Net5.rte[2].queue[1] qlen:timeavg 0.042155419720174
attr interpolationmode sample-hold
attr title "queue length, timeavg"
scalar Net5.rte[2].queue[1] qlen:max 18
attr interpolationmode sample-hold
attr title "queue length, max"
scalar Net5.rte[2].queue[1] drop:count 0
attr interpolationmode none
attr title "dropped packet byte length, count"
attr unit bytes
scalar Net5.rte[2].queue[1] drop:sum 0
attr interpolationmode none
attr title "dropped packet byte length, sum"
attr unit bytes
scalar Net5.rte[2].queue[2] rxBytes:count 65
attr interpolationmode none
attr title "received packet byte length, count"
attr unit bytes
scalar Net5.rte[2].queue[2] rxBytes:sum 97510
attr interpolationmode none
attr title "received packet byte length, sum"
attr unit bytes
statistic Net5.rte[2].queue[2] rxBytes:histogram
field count 65
field mean 1500.1538461538
field stddev 1.2403473459065
field min 1500
field max 1510
field sum 97510
field sqrsum 146280100
attr interpolationmode none
attr title "received packet byte length, histogram"
attr unit bytes
bin	-inf	0
bin	1497	0
bin	1498	0
bin	1499	0
bin	1500	64
bin	1501	0
bin	1502	0
bin	1503	0
bin	1504	0
bin	1505	0
bin	1506	0
bin	1507	0
bin	1508	0
bin	1509	0
bin	1510	1
bin	1511	0
bin	1512	0
bin	1513	0
scalar Net5.rte[2].queue[2] txBytes:count 90
attr interpolationmode none
attr title "transmitting packet byte length, count"
attr unit bytes
scalar Net5.rte[2].queue[2] txBytes:sum 135020
attr interpolationmode none
attr title "transmitting packet byte length, sum"
attr unit bytes
statistic Net5.rte[2].queue[2] txBytes:histogram
field count 90
field mean 1500.2222222222
field stddev 2.1081851067701
field min 1500
field max 1520
field sum 135020
field sqrsum 202560400
attr interpolationmode none
attr title "transmitting packet byte length, histogram"
attr unit bytes
bin	-inf	0
bin	1499	0
bin	1500	89
bin	1501	0
bin	1502	0
bin	1503	0
bin	1504	0
bin	1505	0
bin	1506	0
bin	1507	0
bin	1508	0
bin	1509	0
bin	1510	0
bin	1511	0
bin	1512	0
bin	1513	0
bin	1514	0
bin	1515	0
bin	1516	0
bin	1517	0
bin	1518	0
bin	1519	0
bin	1520	1
bin	1521	0
scalar Net5.rte[2].queue[2] busy:timeavg 0.01168684835199
attr interpolationmode sample-hold
attr title "server busy state, timeavg"
scalar Net5.rte[2].queue[2] qlen:timeavg 0.023629903718694
attr interpolationmode sample-hold
attr title "queue length, timeavg"
scalar Net5.rte[2].queue[2] qlen:max 13
attr interpolationmode sample-hold
attr title "queue length, max"
scalar Net5.rte[2].queue[2] drop:count 0
attr interpolationmode none
attr title "dropped packet byte length, count"
attr unit bytes
scalar Net5.rte[2].queue[2] drop:sum 0
attr interpolationmode none
attr title "dropped packet byte length, sum"
attr unit bytes
scalar Net5.rte[2].queue[3] rxBytes:count 79
attr interpolationmode none
attr title "received packet byte length, count"
attr unit bytes
scalar Net5.rte[2].queue[3] rxBytes:sum 118520
attr interpolationmode none
attr title "received packet byte length, sum"
attr unit bytes
statistic Net5.rte[2].queue[3] rxBytes:histogram
field count 79
field mean 1500.253164557
field stddev 2.2501758018714
field min 1500
field max 1520
field sum 118520
field sqrsum 177810400
attr interpolationmode none
attr title "received packet byte length, histogram"
attr unit bytes
bin	-inf	0
bin	1499	0
bin	1500	78
bin	1501	0
bin	1502	0
bin	1503	0
bin	1504	0
bin	1505	0
bin	1506	0
bin	1507	0
bin	1508	0
bin	1509	0
bin	1510	0
bin	1511	0
bin	1512	0
bin	1513	0
bin	1514	0
bin	1515	0
bin	1516	0
bin	1517	0
bin	1518	0
bin	1519	0
bin	1520	1
bin	1521	0
scalar Net5.rte[2].queue[3] txBytes:count 111
attr interpolationmode none
attr title "transmitting packet byte length, count"
attr unit bytes
scalar Net5.rte[2].queue[3] txBytes:sum 166500
attr interpolationmode none
attr title "transmitting packet byte length, sum"
attr unit bytes
statistic Net5.rte[2].queue[3] txBytes:histogram
field count 111
field mean 1500
field stddev 0
field min 1500
field max 1500
field sum 166500
field sqrsum 249750000
attr interpolationmode none
attr title "transmitting packet byte length, histogram"
attr unit bytes
bin	-inf	0
bin	1499	0
bin	1500	111
bin	1501	0
scalar Net5.rte[2].queue[3] busy:timeavg 0.014411644575687
attr interpolationmode sample-hold
attr title "server busy state, timeavg"
scalar Net5.rte[2].queue[3] qlen:timeavg 0.0007910382001497
attr interpolationmode sample-hold
attr title "queue length, timeavg"
scalar Net5.rte[2].queue[3] qlen:max 2
attr interpolationmode sample-hold
attr title "queue length, max"
scalar Net5.rte[2].queue[3] drop:count 0
attr interpolationmode none
attr title "dropped packet byte length, count"
attr unit bytes
scalar Net5.rte[2].queue[3] drop:sum 0
attr interpolationmode none
attr title "dropped packet byte length, sum"
attr unit bytes
scalar Net5.rte[2].queue[4] rxBytes:count 91
attr interpolationmode none
attr title "received packet byte length, count"
attr unit bytes
scalar Net5.rte[2].queue[4] rxBytes:sum 136500
attr interpolationmode none
attr title "received packet byte length, sum"
attr unit bytes
statistic Net5.rte[2].queue[4] rxBytes:histogram
field count 91
field mean 1500
field stddev 0
field min 1500
field max 1500
field sum 136500
field sqrsum 204750000
attr interpolationmode none
attr title "received packet byte length, histogram"
attr unit bytes
bin	-inf	0
bin	1499	0
bin	1500	91
bin	1501	0
scalar Net5.rte[2].queue[4] txBytes:count 69
attr interpolationmode none
attr title "transmitting packet byte length, count"
attr unit bytes
scalar Net5.rte[2].queue[4] txBytes:sum 103520
attr interpolationmode none
attr title "transmitting packet byte length, sum"
attr unit bytes
statistic Net5.rte[2].queue[4] txBytes:histogram
field count 69
field mean 1500.2898550725
field stddev 1.689948217802
field min 1500
field max 1510
field sum 103520
field sqrsum 155310200
attr interpolationmode none
attr title "transmitting packet byte length, histogram"
attr unit bytes
bin	-inf	0
bin	1497	0
bin	1498	0
bin	1499	0
bin	1500	67
bin	1501	0
bin	1502	0
bin	1503	0
bin	1504	0
bin	1505	0
bin	1506	0
bin	1507	0
bin	1508	0
bin	1509	0
bin	1510	2
bin	1511	0
bin	1512	0
bin	1513	0
scalar Net5.rte[2].queue[4] busy:timeavg 0.0089603209998328
attr interpolationmode sample-hold
attr title "server busy state, timeavg"
scalar Net5.rte[2].queue[4] qlen:timeavg 0.017138171927844
attr interpolationmode sample-hold
attr title "queue length, timeavg"
scalar Net5.rte[2].queue[4] qlen:max 11
attr interpolationmode sample-hold
attr title "queue length, max"
scalar Net5.rte[2].queue[4] drop:count 0
attr interpolationmode none
attr title "dropped packet byte length, count"
attr unit bytes
scalar Net5.rte[2].queue[4] drop:sum 0
attr interpolationmode none
attr title "dropped packet byte length, sum"
attr unit bytes
scalar Net5.rte[3].app hopCount:mean 3.8767123287671
attr interpolationmode none
attr title "hop count of arrived packets, mean"
scalar Net5.rte[3].app hopCount:max 5
attr interpolationmode none
attr title "hop count of arrived packets, max"
scalar Net5.rte[3].app endToEndDelay:mean 0.39694023289196
attr interpolationmode none
attr title "end-to-end delay of arrived packets, mean"
attr unit s
scalar Net5.rte[3].app endToEndDelay:max 0.53333333334
attr interpolationmode none
attr title "end-to-end delay of arrived packets, max"
attr unit s
statistic Net5.rte[3].routing outputIf:histogram
field count 249
field mean 0.24096385542169
field stddev 0.87883300708011
field min -1
field max 1
field sum 60
field sqrsum 206
attr interpolationmode none
attr title "output interface for each routed packet, histogram"
bin	-inf	0
bin	-2	0
bin	-1	73
bin	0	43
bin	1	133
bin	2	0
scalar Net5.rte[3].routing drop:count 0
attr interpolationmode none
attr title "dropped packet byte length, count"
attr unit bytes
scalar Net5.rte[3].routing drop:sum 0
attr interpolationmode none
attr title "dropped packet byte length, sum"
attr unit bytes
scalar Net5.rte[3].queue[0] rxBytes:count 55
attr interpolationmode none
attr title "received packet byte length, count"
attr unit bytes
scalar Net5.rte[3].queue[0] rxBytes:sum 82500
attr interpolationmode none
attr title "received packet byte length, sum"
attr unit bytes
statistic Net5.rte[3].queue[0] rxBytes:histogram
field count 55
field mean 1500
field stddev 0
field min 1500
field max 1500
field sum 82500
field sqrsum 123750000
attr interpolationmode none
attr title "received packet byte length, histogram"
attr unit bytes
bin	-inf	0
bin	1499	0
bin	1500	55
bin	1501	0
scalar Net5.rte[3].queue[0] txBytes:count 43
attr interpolationmode none
attr title "transmitting packet byte length, count"
attr unit bytes
scalar Net5.rte[3].queue[0] txBytes:sum 64520
attr interpolationmode none
attr title "transmitting packet byte length, sum"
attr unit bytes
statistic Net5.rte[3].queue[0] txBytes:histogram
field count 43
field mean 1500.4651162791
field stddev 3.049971406671
field min 1500
field max 1520
field sum 64520
field sqrsum 96810400
attr interpolationmode none
attr title "transmitting packet byte length, histogram"
attr unit bytes
bin	-inf	0
bin	1495	0
bin	1496	0
bin	1497	0
bin	1498	0
bin	1499	0
bin	1500	42
bin	1501	0
bin	1502	0
bin	1503	0
bin	1504	0
bin	1505	0
bin	1506	0
bin	1507	0
bin	1508	0
bin	1509	0
bin	1510	0
bin	1511	0
bin	1512	0
bin	1513	0
bin	1514	0
bin	1515	0
bin	1516	0
bin	1517	0
bin	1518	0
bin	1519	0
bin	1520	1
bin	1521	0
bin	1522	0
bin	1523	0
bin	1524	0
bin	1525	0
scalar Net5.rte[3].queue[0] busy:timeavg 0.0055846204685908
attr interpolationmode sample-hold
attr title "server busy state, timeavg"
scalar Net5.rte[3].queue[0] qlen:timeavg 0.025707257891766
attr interpolationmode sample-hold
attr title "queue length, timeavg"
scalar Net5.rte[3].queue[0] qlen:max 11
attr interpolationmode sample-hold
attr title "queue length, max"
scalar Net5.rte[3].queue[0] drop:count 0
attr interpolationmode none
attr title "dropped packet byte length, count"
attr unit bytes
scalar Net5.rte[3].queue[0] drop:sum 0
attr interpolationmode none
attr title "dropped packet byte length, sum"
attr unit bytes
scalar Net5.rte[3].queue[1] rxBytes:count 40
attr interpolationmode none
attr title "received packet byte length, count"
attr unit bytes
scalar Net5.rte[3].queue[1] rxBytes:sum 60000
attr interpolationmode none
attr title "received packet byte length, sum"
attr unit bytes
statistic Net5.rte[3].queue[1] rxBytes:histogram
field count 40
field mean 1500
field stddev 0
field min 1500
field max 1500
field sum 60000
field sqrsum 90000000
attr interpolationmode none
attr title "received packet byte length, histogram"
attr unit bytes
bin	-inf	0
bin	1499	0
bin	1500	40
bin	1501	0
scalar Net5.rte[3].queue[1] txBytes:count 133
attr interpolationmode none
attr title "transmitting packet byte length, count"
attr unit bytes
scalar Net5.rte[3].queue[1] txBytes:sum 199500
attr interpolationmode none
attr title "transmitting packet byte length, sum"
attr unit bytes
statistic Net5.rte[3].queue[1] txBytes:histogram
field count 133
field mean 1500
field stddev 0
field min 1500
field max 1500
field sum 199500
field sqrsum 299250000
attr interpolationmode none
attr title "transmitting packet byte length, histogram"
attr unit bytes
bin	-inf	0
bin	1499	0
bin	1500	133
bin	1501	0
scalar Net5.rte[3].queue[1] busy:timeavg 0.017268006563661
attr interpolationmode sample-hold
attr title "server busy state, timeavg"
scalar Net5.rte[3].queue[1] qlen:timeavg 0.26901736541282
attr interpolationmode sample-hold
attr title "queue length, timeavg"
scalar Net5.rte[3].queue[1] qlen:max 37
attr interpolationmode sample-hold
attr title "queue length, max"
scalar Net5.rte[3].queue[1] drop:count 0
attr interpolationmode none
attr title "dropped packet byte length, count"
attr unit bytes
scalar Net5.rte[3].queue[1] drop:sum 0
attr interpolationmode none
attr title "dropped packet byte length, sum"
attr unit bytes
scalar Net5.rte[4].app hopCount:mean 3.013698630137
attr interpolationmode none
attr title "hop count of arrived packets, mean"
scalar Net5.rte[4].app hopCount:max 5
attr interpolationmode none
attr title "hop count of arrived packets, max"
scalar Net5.rte[4].app endToEndDelay:mean 0.30895255510423
attr interpolationmode none
attr title "end-to-end delay of arrived packets, mean"
attr unit s
scalar Net5.rte[4].app endToEndDelay:max 0.515000000003
attr interpolationmode none
attr title "end-to-end delay of arrived packets, max"
attr unit s
statistic Net5.rte[4].routing outputIf:histogram
field count 328
field mean 0.59146341463415
field stddev 1.1132453831304
field min -1
field max 2
field sum 194
field sqrsum 520
attr interpolationmode none
attr title "output interface for each routed packet, histogram"
bin	-inf	0
bin	-2	0
bin	-1	73
bin	0	78
bin	1	87
bin	2	90
bin	3	0
scalar Net5.rte[4].routing drop:count 0
attr interpolationmode none
attr title "dropped packet byte length, count"
attr unit bytes
scalar Net5.rte[4].routing drop:sum 0
attr interpolationmode none
attr title "dropped packet byte length, sum"
attr unit bytes
scalar Net5.rte[4].queue[0] rxBytes:count 35
attr interpolationmode none
attr title "received packet byte length, count"
attr unit bytes
scalar Net5.rte[4].queue[0] rxBytes:sum 52500
attr interpolationmode none
attr title "received packet byte length, sum"
attr unit bytes
statistic Net5.rte[4].queue[0] rxBytes:histogram
field count 35
field mean 1500
field stddev 0
field min 1500
field max 1500
field sum 52500
field sqrsum 78750000
attr interpolationmode none
attr title "received packet byte length, histogram"
attr unit bytes
bin	-inf	0
bin	1499	0
bin	1500	35
bin	1501	0
scalar Net5.rte[4].queue[0] txBytes:count 78
attr interpolationmode none
attr title "transmitting packet byte length, count"
attr unit bytes
scalar Net5.rte[4].queue[0] txBytes:sum 117000
attr interpolationmode none
attr title "transmitting packet byte length, sum"
attr unit bytes
statistic Net5.rte[4].queue[0] txBytes:histogram
field count 78
field mean 1500
field stddev 0
field min 1500
field max 1500
field sum 117000
field sqrsum 175500000
attr interpolationmode none
attr title "transmitting packet byte length, histogram"
attr unit bytes
bin	-inf	0
bin	1499	0
bin	1500	78
bin	1501	0
scalar Net5.rte[4].queue[0] busy:timeavg 0.010127101593726
attr interpolationmode sample-hold
attr title "server busy state, timeavg"
scalar Net5.rte[4].queue[0] qlen:timeavg 0.0040777541277948
attr interpolationmode sample-hold
attr title "queue length, timeavg"
scalar Net5.rte[4].queue[0] qlen:max 4
attr interpolationmode sample-hold
attr title "queue length, max"
scalar Net5.rte[4].queue[0] drop:count 0
attr interpolationmode none
attr title "dropped packet byte length, count"
attr unit bytes
scalar Net5.rte[4].queue[0] drop:sum 0
attr interpolationmode none
attr title "dropped packet byte length, sum"
attr unit bytes
scalar Net5.rte[4].queue[1] rxBytes:count 60
attr interpolationmode none
attr title "received packet byte length, count"
attr unit bytes
scalar Net5.rte[4].queue[1] rxBytes:sum 90000
attr interpolationmode none
attr title "received packet byte length, sum"
attr unit bytes
statistic Net5.rte[4].queue[1] rxBytes:histogram
field count 60
field mean 1500
field stddev 0
field min 1500
field max 1500
field sum 90000
field sqrsum 135000000
attr interpolationmode none
attr title "received packet byte length, histogram"
attr unit bytes
bin	-inf	0
bin	1499	0
bin	1500	60
bin	1501	0
scalar Net5.rte[4].queue[1] txBytes:count 87
attr interpolationmode none
attr title "transmitting packet byte length, count"
attr unit bytes
scalar Net5.rte[4].queue[1] txBytes:sum 130500
attr interpolationmode none
attr title "transmitting packet byte length, sum"
attr unit bytes
statistic Net5.rte[4].queue[1] txBytes:histogram
field count 87
field mean 1500
field stddev 0
field min 1500
field max 1500
field sum 130500
field sqrsum 195750000
attr interpolationmode none
attr title "transmitting packet byte length, histogram"
attr unit bytes
bin	-inf	0
bin	1499	0
bin	1500	87
bin	1501	0
scalar Net5.rte[4].queue[1] busy:timeavg 0.011295613316079
attr interpolationmode sample-hold
attr title "server busy state, timeavg"
scalar Net5.rte[4].queue[1] qlen:timeavg 0.069331695526277
attr interpolationmode sample-hold
attr title "queue length, timeavg"
scalar Net5.rte[4].queue[1] qlen:max 19
attr interpolationmode sample-hold
attr title "queue length, max"
scalar Net5.rte[4].queue[1] drop:count 0
attr interpolationmode none
attr title "dropped packet byte length, count"
attr unit bytes
scalar Net5.rte[4].queue[1] drop:sum 0
attr interpolationmode none
attr title "dropped packet byte length, sum"
attr unit bytes
scalar Net5.rte[4].queue[2] rxBytes:count 80
attr interpolationmode none
attr title "received packet byte length, count"
attr unit bytes
scalar Net5.rte[4].queue[2] rxBytes:sum 120000
attr interpolationmode none
attr title "received packet byte length, sum"
attr unit bytes
statistic Net5.rte[4].queue[2] rxBytes:histogram
field count 80
field mean 1500
field stddev 0
field min 1500
field max 1500
field sum 120000
field sqrsum 180000000
attr interpolationmode none
attr title "received packet byte length, histogram"
attr unit bytes
bin	-inf	0
bin	1499	0
bin	1500	80
bin	1501	0
scalar Net5.rte[4].queue[2] txBytes:count 90
attr interpolationmode none
attr title "transmitting packet byte length, count"
attr unit bytes
scalar Net5.rte[4].queue[2] txBytes:sum 135020
attr interpolationmode none
attr title "transmitting packet byte length, sum"
attr unit bytes
statistic Net5.rte[4].queue[2] txBytes:histogram
field count 90
field mean 1500.2222222222
field stddev 2.1081851067701
field min 1500
field max 1520
field sum 135020
field sqrsum 202560400
attr interpolationmode none
attr title "transmitting packet byte length, histogram"
attr unit bytes
bin	-inf	0
bin	1499	0
bin	1500	89
bin	1501	0
bin	1502	0
bin	1503	0
bin	1504	0
bin	1505	0
bin	1506	0
bin	1507	0
bin	1508	0
bin	1509	0
bin	1510	0
bin	1511	0
bin	1512	0
bin	1513	0
bin	1514	0
bin	1515	0
bin	1516	0
bin	1517	0
bin	1518	0
bin	1519	0
bin	1520	1
bin	1521	0
scalar Net5.rte[4].queue[2] busy:timeavg 0.01168684835199
attr interpolationmode sample-hold
attr title "server busy state, timeavg"
scalar Net5.rte[4].queue[2] qlen:timeavg 0.11703758467141
attr interpolationmode sample-hold
attr title "queue length, timeavg"
scalar Net5.rte[4].queue[2] qlen:max 24
attr interpolationmode sample-hold
attr title "queue length, max"
scalar Net5.rte[4].queue[2] drop:count 0
attr interpolationmode none
attr title "dropped packet byte length, count"
attr unit bytes
scalar Net5.rte[4].queue[2] drop:sum 0
attr interpolationmode none
attr title "dropped packet byte length, sum"
attr unit bytes
scalar Net5.rte[5].app hopCount:mean 4.3478260869565
attr interpolationmode none
attr title "hop count of arrived packets, mean"
scalar Net5.rte[5].app hopCount:max 6
attr interpolationmode none
attr title "hop count of arrived packets, max"
scalar Net5.rte[5].app endToEndDelay:mean 0.44667781718909
attr interpolationmode none
attr title "end-to-end delay of arrived packets, mean"
attr unit s
scalar Net5.rte[5].app endToEndDelay:max 0.620000000004
attr interpolationmode none
attr title "end-to-end delay of arrived packets, max"
attr unit s
statistic Net5.rte[5].routing outputIf:histogram
field count 120
field mean -0.575
field stddev 0.49641572439697
field min -1
field max 0
field sum -69
field sqrsum 69
attr interpolationmode none
attr title "output interface for each routed packet, histogram"
bin	-inf	0
bin	-2	0
bin	-1	69
bin	0	51
bin	1	0
scalar Net5.rte[5].routing drop:count 0
attr interpolationmode none
attr title "dropped packet byte length, count"
attr unit bytes
scalar Net5.rte[5].routing drop:sum 0
attr interpolationmode none
attr title "dropped packet byte length, sum"
attr unit bytes
scalar Net5.rte[5].queue[0] rxBytes:count 69
attr interpolationmode none
attr title "received packet byte length, count"
attr unit bytes
scalar Net5.rte[5].queue[0] rxBytes:sum 103500
attr interpolationmode none
attr title "received packet byte length, sum"
attr unit bytes
statistic Net5.rte[5].queue[0] rxBytes:histogram
field count 69
field mean 1500
field stddev 0
field min 1500
field max 1500
field sum 103500
field sqrsum 155250000
attr interpolationmode none
attr title "received packet byte length, histogram"
attr unit bytes
bin	-inf	0
bin	1499	0
bin	1500	69
bin	1501	0
scalar Net5.rte[5].queue[0] txBytes:count 51
attr interpolationmode none
attr title "transmitting packet byte length, count"
attr unit bytes
scalar Net5.rte[5].queue[0] txBytes:sum 76500
attr interpolationmode none
attr title "transmitting packet byte length, sum"
attr unit bytes
statistic Net5.rte[5].queue[0] txBytes:histogram
field count 51
field mean 1500
field stddev 0
field min 1500
field max 1500
field sum 76500
field sqrsum 114750000
attr interpolationmode none
attr title "transmitting packet byte length, histogram"
attr unit bytes
bin	-inf	0
bin	1499	0
bin	1500	51
bin	1501	0
scalar Net5.rte[5].queue[0] busy:timeavg 0.0066215664266669
attr interpolationmode sample-hold
attr title "server busy state, timeavg"
scalar Net5.rte[5].queue[0] qlen:timeavg 0.15268553172079
attr interpolationmode sample-hold
attr title "queue length, timeavg"
scalar Net5.rte[5].queue[0] qlen:max 48
attr interpolationmode sample-hold
attr title "queue length, max"
scalar Net5.rte[5].queue[0] drop:count 0
attr interpolationmode none
attr title "dropped packet byte length, count"
attr unit bytes
scalar Net5.rte[5].queue[0] drop:sum 0
attr interpolationmode none
attr title "dropped packet byte length, sum"
attr unit bytes
scalar Net5.rte[6].app hopCount:mean 3.32
attr interpolationmode none
attr title "hop count of arrived packets, mean"
scalar Net5.rte[6].app hopCount:max 5
attr interpolationmode none
attr title "hop count of arrived packets, max"
scalar Net5.rte[6].app endToEndDelay:mean 0.34020524398748
attr interpolationmode none
attr title "end-to-end delay of arrived packets, mean"
attr unit s
scalar Net5.rte[6].app endToEndDelay:max 0.51666666667
attr interpolationmode none
attr title "end-to-end delay of arrived packets, max"
attr unit s
statistic Net5.rte[6].routing outputIf:histogram
field count 370
field mean 0.59459459459459
field stddev 1.0607421715206
field min -1
field max 2
field sum 220
field sqrsum 546
attr interpolationmode none
attr title "output interface for each routed packet, histogram"
bin	-inf	0
bin	-2	0
bin	-1	75
bin	0	88
bin	1	119
bin	2	88
bin	3	0
scalar Net5.rte[6].routing drop:count 0
attr interpolationmode none
attr title "dropped packet byte length, count"
attr unit bytes
scalar Net5.rte[6].routing drop:sum 0
attr interpolationmode none
attr title "dropped packet byte length, sum"
attr unit bytes
scalar Net5.rte[6].queue[0] rxBytes:count 91
attr interpolationmode none
attr title "received packet byte length, count"
attr unit bytes
scalar Net5.rte[6].queue[0] rxBytes:sum 136500
attr interpolationmode none
attr title "received packet byte length, sum"
attr unit bytes
statistic Net5.rte[6].queue[0] rxBytes:histogram
field count 91
field mean 1500
field stddev 0
field min 1500
field max 1500
field sum 136500
field sqrsum 204750000
attr interpolationmode none
attr title "received packet byte length, histogram"
attr unit bytes
bin	-inf	0
bin	1499	0
bin	1500	91
bin	1501	0
scalar Net5.rte[6].queue[0] txBytes:count 88
attr interpolationmode none
attr title "transmitting packet byte length, count"
attr unit bytes
scalar Net5.rte[6].queue[0] txBytes:sum 132030
attr interpolationmode none
attr title "transmitting packet byte length, sum"
attr unit bytes
statistic Net5.rte[6].queue[0] txBytes:histogram
field count 88
field mean 1500.3409090909
field stddev 3.1980107453488
field min 1500
field max 1530
field sum 132030
field sqrsum 198090900
attr interpolationmode none
attr title "transmitting packet byte length, histogram"
attr unit bytes
bin	-inf	0
bin	1499	0
bin	1500	87
bin	1501	0
bin	1502	0
bin	1503	0
bin	1504	0
bin	1505	0
bin	1506	0
bin	1507	0
bin	1508	0
bin	1509	0
bin	1510	0
bin	1511	0
bin	1512	0
bin	1513	0
bin	1514	0
bin	1515	0
bin	1516	0
bin	1517	0
bin	1518	0
bin	1519	0
bin	1520	0
bin	1521	0
bin	1522	0
bin	1523	0
bin	1524	0
bin	1525	0
bin	1526	0
bin	1527	0
bin	1528	0
bin	1529	0
bin	1530	1
bin	1531	0
scalar Net5.rte[6].queue[0] busy:timeavg 0.011428044644586
attr interpolationmode sample-hold
attr title "server busy state, timeavg"
scalar Net5.rte[6].queue[0] qlen:timeavg 0.048817823067191
attr interpolationmode sample-hold
attr title "queue length, timeavg"
scalar Net5.rte[6].queue[0] qlen:max 16
attr interpolationmode sample-hold
attr title "queue length, max"
scalar Net5.rte[6].queue[0] drop:count 0
attr interpolationmode none
attr title "dropped packet byte length, count"
attr unit bytes
scalar Net5.rte[6].queue[0] drop:sum 0
attr interpolationmode none
attr title "dropped packet byte length, sum"
attr unit bytes
scalar Net5.rte[6].queue[1] rxBytes:count 64
attr interpolationmode none
attr title "received packet byte length, count"
attr unit bytes
scalar Net5.rte[6].queue[1] rxBytes:sum 96010
attr interpolationmode none
attr title "received packet byte length, sum"
attr unit bytes
statistic Net5.rte[6].queue[1] rxBytes:histogram
field count 64
field mean 1500.15625
field stddev 1.25
field min 1500
field max 1510
field sum 96010
field sqrsum 144030100
attr interpolationmode none
attr title "received packet byte length, histogram"
attr unit bytes
bin	-inf	0
bin	1499	0
bin	1500	63
bin	1501	0
bin	1502	0
bin	1503	0
bin	1504	0
bin	1505	0
bin	1506	0
bin	1507	0
bin	1508	0
bin	1509	0
bin	1510	1
bin	1511	0
scalar Net5.rte[6].queue[1] txBytes:count 119
attr interpolationmode none
attr title "transmitting packet byte length, count"
attr unit bytes
scalar Net5.rte[6].queue[1] txBytes:sum 178500
attr interpolationmode none
attr title "transmitting packet byte length, sum"
attr unit bytes
statistic Net5.rte[6].queue[1] txBytes:histogram
field count 119
field mean 1500
field stddev 0
field min 1500
field max 1500
field sum 178500
field sqrsum 267750000
attr interpolationmode none
attr title "transmitting packet byte length, histogram"
attr unit bytes
bin	-inf	0
bin	1499	0
bin	1500	119
bin	1501	0
scalar Net5.rte[6].queue[1] busy:timeavg 0.015450321662223
attr interpolationmode sample-hold
attr title "server busy state, timeavg"
scalar Net5.rte[6].queue[1] qlen:timeavg 0.082956182755
attr interpolationmode sample-hold
attr title "queue length, timeavg"
scalar Net5.rte[6].queue[1] qlen:max 21
attr interpolationmode sample-hold
attr title "queue length, max"
scalar Net5.rte[6].queue[1] drop:count 0
attr interpolationmode none
attr title "dropped packet byte length, count"
attr unit bytes
scalar Net5.rte[6].queue[1] drop:sum 0
attr interpolationmode none
attr title "dropped packet byte length, sum"
attr unit bytes
scalar Net5.rte[6].queue[2] rxBytes:count 59
attr interpolationmode none
attr title "received packet byte length, count"
attr unit bytes
scalar Net5.rte[6].queue[2] rxBytes:sum 88500
attr interpolationmode none
attr title "received packet byte length, sum"
attr unit bytes
statistic Net5.rte[6].queue[2] rxBytes:histogram
field count 59
field mean 1500
field stddev 0
field min 1500
field max 1500
field sum 88500
field sqrsum 132750000
attr interpolationmode none
attr title "received packet byte length, histogram"
attr unit bytes
bin	-inf	0
bin	1499	0
bin	1500	59
bin	1501	0
scalar Net5.rte[6].queue[2] txBytes:count 88
attr interpolationmode none
attr title "transmitting packet byte length, count"
attr unit bytes
scalar Net5.rte[6].queue[2] txBytes:sum 132010
attr interpolationmode none
attr title "transmitting packet byte length, sum"
attr unit bytes
statistic Net5.rte[6].queue[2] txBytes:histogram
field count 88
field mean 1500.1136363636
field stddev 1.0660035818365
field min 1500
field max 1510
field sum 132010
field sqrsum 198030100
attr interpolationmode none
attr title "transmitting packet byte length, histogram"
attr unit bytes
bin	-inf	0
bin	1499	0
bin	1500	87
bin	1501	0
bin	1502	0
bin	1503	0
bin	1504	0
bin	1505	0
bin	1506	0
bin	1507	0
bin	1508	0
bin	1509	0
bin	1510	1
bin	1511	0
scalar Net5.rte[6].queue[2] busy:timeavg 0.011426313516126
attr interpolationmode sample-hold
attr title "server busy state, timeavg"
scalar Net5.rte[6].queue[2] qlen:timeavg 0.030381304781178
attr interpolationmode sample-hold
attr title "queue length, timeavg"
scalar Net5.rte[6].queue[2] qlen:max 12
attr interpolationmode sample-hold
attr title "queue length, max"
scalar Net5.rte[6].queue[2] drop:count 0
attr interpolationmode none
attr title "dropped packet byte length, count"
attr unit bytes
scalar Net5.rte[6].queue[2] drop:sum 0
attr interpolationmode none
attr title "dropped packet byte length, sum"
attr unit bytes
scalar Net5.rte[7].app hopCount:mean 3
attr interpolationmode none
attr title "hop count of arrived packets, mean"
scalar Net5.rte[7].app hopCount:max 4
attr interpolationmode none
attr title "hop count of arrived packets, max"
scalar Net5.rte[7].app endToEndDelay:mean 0.31008210304134
attr interpolationmode none
attr title "end-to-end delay of arrived packets, mean"
attr unit s
scalar Net5.rte[7].app endToEndDelay:max 0.43333333334
attr interpolationmode none
attr title "end-to-end delay of arrived packets, max"
attr unit s
statistic Net5.rte[7].routing outputIf:histogram
field count 279
field mean 0.48745519713262
field stddev 1.1247799036339
field min -1
field max 2
field sum 136
field sqrsum 418
attr interpolationmode none
attr title "output interface for each routed packet, histogram"
bin	-inf	0
bin	-2	0
bin	-1	73
bin	0	65
bin	1	73
bin	2	68
bin	3	0
scalar Net5.rte[7].routing drop:count 0
attr interpolationmode none
attr title "dropped packet byte length, count"
attr unit bytes
scalar Net5.rte[7].routing drop:sum 0
attr interpolationmode none
attr title "dropped packet byte length, sum"
attr unit bytes
scalar Net5.rte[7].queue[0] rxBytes:count 58
attr interpolationmode none
attr title "received packet byte length, count"
attr unit bytes
scalar Net5.rte[7].queue[0] rxBytes:sum 87000
attr interpolationmode none
attr title "received packet byte length, sum"
attr unit bytes
statistic Net5.rte[7].queue[0] rxBytes:histogram
field count 58
field mean 1500
field stddev 0
field min 1500
field max 1500
field sum 87000
field sqrsum 130500000
attr interpolationmode none
attr title "received packet byte length, histogram"
attr unit bytes
bin	-inf	0
bin	1499	0
bin	1500	58
bin	1501	0
scalar Net5.rte[7].queue[0] txBytes:count 65
attr interpolationmode none
attr title "transmitting packet byte length, count"
attr unit bytes
scalar Net5.rte[7].queue[0] txBytes:sum 97510
attr interpolationmode none
attr title "transmitting packet byte length, sum"
attr unit bytes
statistic Net5.rte[7].queue[0] txBytes:histogram
field count 65
field mean 1500.1538461538
field stddev 1.2403473459065
field min 1500
field max 1510
field sum 97510
field sqrsum 146280100
attr interpolationmode none
attr title "transmitting packet byte length, histogram"
attr unit bytes
bin	-inf	0
bin	1497	0
bin	1498	0
bin	1499	0
bin	1500	64
bin	1501	0
bin	1502	0
bin	1503	0
bin	1504	0
bin	1505	0
bin	1506	0
bin	1507	0
bin	1508	0
bin	1509	0
bin	1510	1
bin	1511	0
bin	1512	0
bin	1513	0
scalar Net5.rte[7].queue[0] busy:timeavg 0.0084401168923348
attr interpolationmode sample-hold
attr title "server busy state, timeavg"
scalar Net5.rte[7].queue[0] qlen:timeavg 0.023629903718694
attr interpolationmode sample-hold
attr title "queue length, timeavg"
scalar Net5.rte[7].queue[0] qlen:max 13
attr interpolationmode sample-hold
attr title "queue length, max"
scalar Net5.rte[7].queue[0] drop:count 0
attr interpolationmode none
attr title "dropped packet byte length, count"
attr unit bytes
scalar Net5.rte[7].queue[0] drop:sum 0
attr interpolationmode none
attr title "dropped packet byte length, sum"
attr unit bytes
scalar Net5.rte[7].queue[1] rxBytes:count 47
attr interpolationmode none
attr title "received packet byte length, count"
attr unit bytes
scalar Net5.rte[7].queue[1] rxBytes:sum 70510
attr interpolationmode none
attr title "received packet byte length, sum"
attr unit bytes
statistic Net5.rte[7].queue[1] rxBytes:histogram
field count 47
field mean 1500.2127659574
field stddev 1.4586499149813
field min 1500
field max 1510
field sum 70510
field sqrsum 105780100
attr interpolationmode none
attr title "received packet byte length, histogram"
attr unit bytes
bin	-inf	0
bin	1497	0
bin	1498	0
bin	1499	0
bin	1500	46
bin	1501	0
bin	1502	0
bin	1503	0
bin	1504	0
bin	1505	0
bin	1506	0
bin	1507	0
bin	1508	0
bin	1509	0
bin	1510	1
bin	1511	0
bin	1512	0
bin	1513	0
scalar Net5.rte[7].queue[1] txBytes:count 73
attr interpolationmode none
attr title "transmitting packet byte length, count"
attr unit bytes
scalar Net5.rte[7].queue[1] txBytes:sum 109500
attr interpolationmode none
attr title "transmitting packet byte length, sum"
attr unit bytes
statistic Net5.rte[7].queue[1] txBytes:histogram
field count 73
field mean 1500
field stddev 0
field min 1500
field max 1500
field sum 109500
field sqrsum 164250000
attr interpolationmode none
attr title "transmitting packet byte length, histogram"
attr unit bytes
bin	-inf	0
bin	1499	0
bin	1500	73
bin	1501	0
scalar Net5.rte[7].queue[1] busy:timeavg 0.0094779284146409
attr interpolationmode sample-hold
attr title "server busy state, timeavg"
scalar Net5.rte[7].queue[1] qlen:timeavg 0.062839963735427
attr interpolationmode sample-hold
attr title "queue length, timeavg"
scalar Net5.rte[7].queue[1] qlen:max 22
attr interpolationmode sample-hold
attr title "queue length, max"
scalar Net5.rte[7].queue[1] drop:count 0
attr interpolationmode none
attr title "dropped packet byte length, count"
attr unit bytes
scalar Net5.rte[7].queue[1] drop:sum 0
attr interpolationmode none
attr title "dropped packet byte length, sum"
attr unit bytes
scalar Net5.rte[7].queue[2] rxBytes:count 71
attr interpolationmode none
attr title "received packet byte length, count"
attr unit bytes
scalar Net5.rte[7].queue[2] rxBytes:sum 106500
attr interpolationmode none
attr title "received packet byte length, sum"
attr unit bytes
statistic Net5.rte[7].queue[2] rxBytes:histogram
field count 71
field mean 1500
field stddev 0
field min 1500
field max 1500
field sum 106500
field sqrsum 159750000
attr interpolationmode none
attr title "received packet byte length, histogram"
attr unit bytes
bin	-inf	0
bin	1499	0
bin	1500	71
bin	1501	0
scalar Net5.rte[7].queue[2] txBytes:count 68
attr interpolationmode none
attr title "transmitting packet byte length, count"
attr unit bytes
scalar Net5.rte[7].queue[2] txBytes:sum 102000
attr interpolationmode none
attr title "transmitting packet byte length, sum"
attr unit bytes
statistic Net5.rte[7].queue[2] txBytes:histogram
field count 68
field mean 1500
field stddev 0
field min 1500
field max 1500
field sum 102000
field sqrsum 153000000
attr interpolationmode none
attr title "transmitting packet byte length, histogram"
attr unit bytes
bin	-inf	0
bin	1499	0
bin	1500	68
bin	1501	0
scalar Net5.rte[7].queue[2] busy:timeavg 0.0088287552355559
attr interpolationmode sample-hold
attr title "server busy state, timeavg"
scalar Net5.rte[7].queue[2] qlen:timeavg 0.021292880273988
attr interpolationmode sample-hold
attr title "queue length, timeavg"
scalar Net5.rte[7].queue[2] qlen:max 12
attr interpolationmode sample-hold
attr title "queue length, max"
scalar Net5.rte[7].queue[2] drop:count 0
attr interpolationmode none
attr title "dropped packet byte length, count"
attr unit bytes
scalar Net5.rte[7].queue[2] drop:sum 0
attr interpolationmode none
attr title "dropped packet byte length, sum"
attr unit bytes
scalar Net5.rte[8].app hopCount:mean 2.7808219178082
attr interpolationmode none
attr title "hop count of arrived packets, mean"
scalar Net5.rte[8].app hopCount:max 5
attr interpolationmode none
attr title "hop count of arrived packets, max"
scalar Net5.rte[8].app endToEndDelay:mean 0.28711778346718
attr interpolationmode none
attr title "end-to-end delay of arrived packets, mean"
attr unit s
scalar Net5.rte[8].app endToEndDelay:max 0.520000000004
attr interpolationmode none
attr title "end-to-end delay of arrived packets, max"
attr unit s
statistic Net5.rte[8].routing outputIf:histogram
field count 499
field mean 1.7615230460922
field stddev 1.8576992952727
field min -1
field max 5
field sum 879
field sqrsum 3267
attr interpolationmode none
attr title "output interface for each routed packet, histogram"
bin	-inf	0
bin	-3	0
bin	-2	0
bin	-1	73
bin	0	54
bin	1	119
bin	2	85
bin	3	64
bin	4	49
bin	5	55
bin	6	0
bin	7	0
scalar Net5.rte[8].routing drop:count 0
attr interpolationmode none
attr title "dropped packet byte length, count"
attr unit bytes
scalar Net5.rte[8].routing drop:sum 0
attr interpolationmode none
attr title "dropped packet byte length, sum"
attr unit bytes
scalar Net5.rte[8].queue[0] rxBytes:count 120
attr interpolationmode none
attr title "received packet byte length, count"
attr unit bytes
scalar Net5.rte[8].queue[0] rxBytes:sum 180000
attr interpolationmode none
attr title "received packet byte length, sum"
attr unit bytes
statistic Net5.rte[8].queue[0] rxBytes:histogram
field count 120
field mean 1500
field stddev 0
field min 1500
field max 1500
field sum 180000
field sqrsum 270000000
attr interpolationmode none
attr title "received packet byte length, histogram"
attr unit bytes
bin	-inf	0
bin	1499	0
bin	1500	120
bin	1501	0
scalar Net5.rte[8].queue[0] txBytes:count 54
attr interpolationmode none
attr title "transmitting packet byte length, count"
attr unit bytes
scalar Net5.rte[8].queue[0] txBytes:sum 81010
attr interpolationmode none
attr title "transmitting packet byte length, sum"
attr unit bytes
statistic Net5.rte[8].queue[0] txBytes:histogram
field count 54
field mean 1500.1851851852
field stddev 1.3608276348872
field min 1500
field max 1510
field sum 81010
field sqrsum 121530100
attr interpolationmode none
attr title "transmitting packet byte length, histogram"
attr unit bytes
bin	-inf	0
bin	1497	0
bin	1498	0
bin	1499	0
bin	1500	53
bin	1501	0
bin	1502	0
bin	1503	0
bin	1504	0
bin	1505	0
bin	1506	0
bin	1507	0
bin	1508	0
bin	1509	0
bin	1510	1
bin	1511	0
bin	1512	0
bin	1513	0
scalar Net5.rte[8].queue[0] busy:timeavg 0.0070119358983479
attr interpolationmode sample-hold
attr title "server busy state, timeavg"
scalar Net5.rte[8].queue[0] qlen:timeavg 0.00259669271634
attr interpolationmode sample-hold
attr title "queue length, timeavg"
scalar Net5.rte[8].queue[0] qlen:max 4
attr interpolationmode sample-hold
attr title "queue length, max"
scalar Net5.rte[8].queue[0] drop:count 0
attr interpolationmode none
attr title "dropped packet byte length, count"
attr unit bytes
scalar Net5.rte[8].queue[0] drop:sum 0
attr interpolationmode none
attr title "dropped packet byte length, sum"
attr unit bytes
scalar Net5.rte[8].queue[1] rxBytes:count 104
attr interpolationmode none
attr title "received packet byte length, count"
attr unit bytes
scalar Net5.rte[8].queue[1] rxBytes:sum 156000
attr interpolationmode none
attr title "received packet byte length, sum"
attr unit bytes
statistic Net5.rte[8].queue[1] rxBytes:histogram
field count 104
field mean 1500
field stddev 0
field min 1500
field max 1500
field sum 156000
field sqrsum 234000000
attr interpolationmode none
attr title "received packet byte length, histogram"
attr unit bytes
bin	-inf	0
bin	1499	0
bin	1500	104
bin	1501	0
scalar Net5.rte[8].queue[1] txBytes:count 119
attr interpolationmode none
attr title "transmitting packet byte length, count"
attr unit bytes
scalar Net5.rte[8].queue[1] txBytes:sum 178500
attr interpolationmode none
attr title "transmitting packet byte length, sum"
attr unit bytes
statistic Net5.rte[8].queue[1] txBytes:histogram
field count 119
field mean 1500
field stddev 0
field min 1500
field max 1500
field sum 178500
field sqrsum 267750000
attr interpolationmode none
attr title "transmitting packet byte length, histogram"
attr unit bytes
bin	-inf	0
bin	1499	0
bin	1500	119
bin	1501	0
scalar Net5.rte[8].queue[1] busy:timeavg 0.015450321662223
attr interpolationmode sample-hold
attr title "server busy state, timeavg"
scalar Net5.rte[8].queue[1] qlen:timeavg 0.057127239759479
attr interpolationmode sample-hold
attr title "queue length, timeavg"
scalar Net5.rte[8].queue[1] qlen:max 20
attr interpolationmode sample-hold
attr title "queue length, max"
scalar Net5.rte[8].queue[1] drop:count 0
attr interpolationmode none
attr title "dropped packet byte length, count"
attr unit bytes
scalar Net5.rte[8].queue[1] drop:sum 0
attr interpolationmode none
attr title "dropped packet byte length, sum"
attr unit bytes
scalar Net5.rte[8].queue[2] rxBytes:count 79
attr interpolationmode none
attr title "received packet byte length, count"
attr unit bytes
scalar Net5.rte[8].queue[2] rxBytes:sum 118500
attr interpolationmode none
attr title "received packet byte length, sum"
attr unit bytes
statistic Net5.rte[8].queue[2] rxBytes:histogram
field count 79
field mean 1500
field stddev 0
field min 1500
field max 1500
field sum 118500
field sqrsum 177750000
attr interpolationmode none
attr title "received packet byte length, histogram"
attr unit bytes
bin	-inf	0
bin	1499	0
bin	1500	79
bin	1501	0
scalar Net5.rte[8].queue[2] txBytes:count 85
attr interpolationmode none
attr title "transmitting packet byte length, count"
attr unit bytes
scalar Net5.rte[8].queue[2] txBytes:sum 127500
attr interpolationmode none
attr title "transmitting packet byte length, sum"
attr unit bytes
statistic Net5.rte[8].queue[2] txBytes:histogram
field count 85
field mean 1500
field stddev 0
field min 1500
field max 1500
field sum 127500
field sqrsum 191250000
attr interpolationmode none
attr title "transmitting packet byte length, histogram"
attr unit bytes
bin	-inf	0
bin	1499	0
bin	1500	85
bin	1501	0
scalar Net5.rte[8].queue[2] busy:timeavg 0.011035944044445
attr interpolationmode sample-hold
attr title "server busy state, timeavg"
scalar Net5.rte[8].queue[2] qlen:timeavg 0.015969660205491
attr interpolationmode sample-hold
attr title "queue length, timeavg"
scalar Net5.rte[8].queue[2] qlen:max 10
attr interpolationmode sample-hold
attr title "queue length, max"
scalar Net5.rte[8].queue[2] drop:count 0
attr interpolationmode none
attr title "dropped packet byte length, count"
attr unit bytes
scalar Net5.rte[8].queue[2] drop:sum 0
attr interpolationmode none
attr title "dropped packet byte length, sum"
attr unit bytes
scalar Net5.rte[8].queue[3] rxBytes:count 39
attr interpolationmode none
attr title "received packet byte length, count"
attr unit bytes
scalar Net5.rte[8].queue[3] rxBytes:sum 58500
attr interpolationmode none
attr title "received packet byte length, sum"
attr unit bytes
statistic Net5.rte[8].queue[3] rxBytes:histogram
field count 39
field mean 1500
field stddev 0
field min 1500
field max 1500
field sum 58500
field sqrsum 87750000
attr interpolationmode none
attr title "received packet byte length, histogram"
attr unit bytes
bin	-inf	0
bin	1499	0
bin	1500	39
bin	1501	0
scalar Net5.rte[8].queue[3] txBytes:count 64
attr interpolationmode none
attr title "transmitting packet byte length, count"
attr unit bytes
scalar Net5.rte[8].queue[3] txBytes:sum 96000
attr interpolationmode none
attr title "transmitting packet byte length, sum"
attr unit bytes
statistic Net5.rte[8].queue[3] txBytes:histogram
field count 64
field mean 1500
field stddev 0
field min 1500
field max 1500
field sum 96000
field sqrsum 144000000
attr interpolationmode none
attr title "transmitting packet byte length, histogram"
attr unit bytes
bin	-inf	0
bin	1499	0
bin	1500	64
bin	1501	0
scalar Net5.rte[8].queue[3] busy:timeavg 0.0083094166922879
attr interpolationmode sample-hold
attr title "server busy state, timeavg"
scalar Net5.rte[8].queue[3] qlen:timeavg 0.00089309161163063
attr interpolationmode sample-hold
attr title "queue length, timeavg"
scalar Net5.rte[8].queue[3] qlen:max 2
attr interpolationmode sample-hold
attr title "queue length, max"
scalar Net5.rte[8].queue[3] drop:count 0
attr interpolationmode none
attr title "dropped packet byte length, count"
attr unit bytes
scalar Net5.rte[8].queue[3] drop:sum 0
attr interpolationmode none
attr title "dropped packet byte length, sum"
attr unit bytes
scalar Net5.rte[8].queue[4] rxBytes:count 10
attr interpolationmode none
attr title "received packet byte length, count"
attr unit bytes
scalar Net5.rte[8].queue[4] rxBytes:sum 15000
attr interpolationmode none
attr title "received packet byte length, sum"
attr unit bytes
statistic Net5.rte[8].queue[4] rxBytes:histogram
field count 10
field mean 1500
field stddev 0
field min 1500
field max 1500
field sum 15000
field sqrsum 22500000
attr interpolationmode none
attr title "received packet byte length, histogram"
attr unit bytes
bin	-inf	0
bin	1499	0
bin	1500	10
bin	1501	0
scalar Net5.rte[8].queue[4] txBytes:count 49
attr interpolationmode none
attr title "transmitting packet byte length, count"
attr unit bytes
scalar Net5.rte[8].queue[4] txBytes:sum 73500
attr interpolationmode none
attr title "transmitting packet byte length, sum"
attr unit bytes
statistic Net5.rte[8].queue[4] txBytes:histogram
field count 49
field mean 1500
field stddev 0
field min 1500
field max 1500
field sum 73500
field sqrsum 110250000
attr interpolationmode none
attr title "transmitting packet byte length, histogram"
attr unit bytes
bin	-inf	0
bin	1499	0
bin	1500	49
bin	1501	0
scalar Net5.rte[8].queue[4] busy:timeavg 0.0063618971550329
attr interpolationmode sample-hold
attr title "server busy state, timeavg"
scalar Net5.rte[8].queue[4] qlen:timeavg 0.0039658415514219
attr interpolationmode sample-hold
attr title "queue length, timeavg"
scalar Net5.rte[8].queue[4] qlen:max 5
attr interpolationmode sample-hold
attr title "queue length, max"
scalar Net5.rte[8].queue[4] drop:count 0
attr interpolationmode none
attr title "dropped packet byte length, count"
attr unit bytes
scalar Net5.rte[8].queue[4] drop:sum 0
attr interpolationmode none
attr title "dropped packet byte length, sum"
attr unit bytes
scalar Net5.rte[8].queue[5] rxBytes:count 45
attr interpolationmode none
attr title "received packet byte length, count"
attr unit bytes
scalar Net5.rte[8].queue[5] rxBytes:sum 67500
attr interpolationmode none
attr title "received packet byte length, sum"
attr unit bytes
statistic Net5.rte[8].queue[5] rxBytes:histogram
field count 45
field mean 1500
field stddev 0
field min 1500
field max 1500
field sum 67500
field sqrsum 101250000
attr interpolationmode none
attr title "received packet byte length, histogram"
attr unit bytes
bin	-inf	0
bin	1499	0
bin	1500	45
bin	1501	0
scalar Net5.rte[8].queue[5] txBytes:count 55
attr interpolationmode none
attr title "transmitting packet byte length, count"
attr unit bytes
scalar Net5.rte[8].queue[5] txBytes:sum 82500
attr interpolationmode none
attr title "transmitting packet byte length, sum"
attr unit bytes
statistic Net5.rte[8].queue[5] txBytes:histogram
field count 55
field mean 1500
field stddev 0
field min 1500
field max 1500
field sum 82500
field sqrsum 123750000
attr interpolationmode none
attr title "transmitting packet byte length, histogram"
attr unit bytes
bin	-inf	0
bin	1499	0
bin	1500	55
bin	1501	0
scalar Net5.rte[8].queue[5] busy:timeavg 0.0071409049699349
attr interpolationmode sample-hold
attr title "server busy state, timeavg"
scalar Net5.rte[8].queue[5] qlen:timeavg 0.00089318883873908
attr interpolationmode sample-hold
attr title "queue length, timeavg"
scalar Net5.rte[8].queue[5] qlen:max 2
attr interpolationmode sample-hold
attr title "queue length, max"
scalar Net5.rte[8].queue[5] drop:count 0
attr interpolationmode none
attr title "dropped packet byte length, count"
attr unit bytes
scalar Net5.rte[8].queue[5] drop:sum 0
attr interpolationmode none
attr title "dropped packet byte length, sum"
attr unit bytes
scalar Net5.rte[9].app hopCount:mean 3.6285714285714
attr interpolationmode none
attr title "hop count of arrived packets, mean"
scalar Net5.rte[9].app hopCount:max 5
attr interpolationmode none
attr title "hop count of arrived packets, max"
scalar Net5.rte[9].app endToEndDelay:mean 0.37483895189199
attr interpolationmode none
attr title "end-to-end delay of arrived packets, mean"
attr unit s
scalar Net5.rte[9].app endToEndDelay:max 0.521666666671
attr interpolationmode none
attr title "end-to-end delay of arrived packets, max"
attr unit s
statistic Net5.rte[9].routing outputIf:histogram
field count 167
field mean -0.18562874251497
field stddev 0.78864497556387
field min -1
field max 1
field sum -31
field sqrsum 109
attr interpolationmode none
attr title "output interface for each routed packet, histogram"
bin	-inf	0
bin	-2	0
bin	-1	70
bin	0	58
bin	1	39
bin	2	0
scalar Net5.rte[9].routing drop:count 0
attr interpolationmode none
attr title "dropped packet byte length, count"
attr unit bytes
scalar Net5.rte[9].routing drop:sum 0
attr interpolationmode none
attr title "dropped packet byte length, sum"
attr unit bytes
scalar Net5.rte[9].queue[0] rxBytes:count 50
attr interpolationmode none
attr title "received packet byte length, count"
attr unit bytes
scalar Net5.rte[9].queue[0] rxBytes:sum 75000
attr interpolationmode none
attr title "received packet byte length, sum"
attr unit bytes
statistic Net5.rte[9].queue[0] rxBytes:histogram
field count 50
field mean 1500
field stddev 0
field min 1500
field max 1500
field sum 75000
field sqrsum 112500000
attr interpolationmode none
attr title "received packet byte length, histogram"
attr unit bytes
bin	-inf	0
bin	1499	0
bin	1500	50
bin	1501	0
scalar Net5.rte[9].queue[0] txBytes:count 58
attr interpolationmode none
attr title "transmitting packet byte length, count"
attr unit bytes
scalar Net5.rte[9].queue[0] txBytes:sum 87000
attr interpolationmode none
attr title "transmitting packet byte length, sum"
attr unit bytes
statistic Net5.rte[9].queue[0] txBytes:histogram
field count 58
field mean 1500
field stddev 0
field min 1500
field max 1500
field sum 87000
field sqrsum 130500000
attr interpolationmode none
attr title "transmitting packet byte length, histogram"
attr unit bytes
bin	-inf	0
bin	1499	0
bin	1500	58
bin	1501	0
scalar Net5.rte[9].queue[0] busy:timeavg 0.0075304088773859
attr interpolationmode sample-hold
attr title "server busy state, timeavg"
scalar Net5.rte[9].queue[0] qlen:timeavg 0.051154846511897
attr interpolationmode sample-hold
attr title "queue length, timeavg"
scalar Net5.rte[9].queue[0] qlen:max 24
attr interpolationmode sample-hold
attr title "queue length, max"
scalar Net5.rte[9].queue[0] drop:count 0
attr interpolationmode none
attr title "dropped packet byte length, count"
attr unit bytes
scalar Net5.rte[9].queue[0] drop:sum 0
attr interpolationmode none
attr title "dropped packet byte length, sum"
attr unit bytes
scalar Net5.rte[9].queue[1] rxBytes:count 65
attr interpolationmode none
attr title "received packet byte length, count"
attr unit bytes
scalar Net5.rte[9].queue[1] rxBytes:sum 97500
attr interpolationmode none
attr title "received packet byte length, sum"
attr unit bytes
statistic Net5.rte[9].queue[1] rxBytes:histogram
field count 65
field mean 1500
field stddev 0
field min 1500
field max 1500
field sum 97500
field sqrsum 146250000
attr interpolationmode none
attr title "received packet byte length, histogram"
attr unit bytes
bin	-inf	0
bin	1499	0
bin	1500	65
bin	1501	0
scalar Net5.rte[9].queue[1] txBytes:count 39
attr interpolationmode none
attr title "transmitting packet byte length, count"
attr unit bytes
scalar Net5.rte[9].queue[1] txBytes:sum 58500
attr interpolationmode none
attr title "transmitting packet byte length, sum"
attr unit bytes
statistic Net5.rte[9].queue[1] txBytes:histogram
field count 39
field mean 1500
field stddev 0
field min 1500
field max 1500
field sum 58500
field sqrsum 87750000
attr interpolationmode none
attr title "transmitting packet byte length, histogram"
attr unit bytes
bin	-inf	0
bin	1499	0
bin	1500	39
bin	1501	0
scalar Net5.rte[9].queue[1] busy:timeavg 0.0050635507968629
attr interpolationmode sample-hold
attr title "server busy state, timeavg"
scalar Net5.rte[9].queue[1] qlen:timeavg 0.035834359485492
attr interpolationmode sample-hold
attr title "queue length, timeavg"
scalar Net5.rte[9].queue[1] qlen:max 23
attr interpolationmode sample-hold
attr title "queue length, max"
scalar Net5.rte[9].queue[1] drop:count 0
attr interpolationmode none
attr title "dropped packet byte length, count"
attr unit bytes
scalar Net5.rte[9].queue[1] drop:sum 0
attr interpolationmode none
attr title "dropped packet byte length, sum"
attr unit bytes
scalar Net5.rte[10].app hopCount:mean 2.8493150684932
attr interpolationmode none
attr title "hop count of arrived packets, mean"
scalar Net5.rte[10].app hopCount:max 5
attr interpolationmode none
attr title "hop count of arrived packets, max"
scalar Net5.rte[10].app endToEndDelay:mean 0.29527936026149
attr interpolationmode none
attr title "end-to-end delay of arrived packets, mean"
attr unit s
scalar Net5.rte[10].app endToEndDelay:max 0.521666666671
attr interpolationmode none
attr title "end-to-end delay of arrived packets, max"
attr unit s
statistic Net5.rte[10].routing outputIf:histogram
field count 435
field mean 0.87586206896552
field stddev 1.2136859269672
field min -1
field max 3
field sum 381
field sqrsum 973
attr interpolationmode none
attr title "output interface for each routed packet, histogram"
bin	-inf	0
bin	-2	0
bin	-1	73
bin	0	91
bin	1	128
bin	2	103
bin	3	40
bin	4	0
scalar Net5.rte[10].routing drop:count 0
attr interpolationmode none
attr title "dropped packet byte length, count"
attr unit bytes
scalar Net5.rte[10].routing drop:sum 0
attr interpolationmode none
attr title "dropped packet byte length, sum"
attr unit bytes
scalar Net5.rte[10].queue[0] rxBytes:count 88
attr interpolationmode none
attr title "received packet byte length, count"
attr unit bytes
scalar Net5.rte[10].queue[0] rxBytes:sum 132030
attr interpolationmode none
attr title "received packet byte length, sum"
attr unit bytes
statistic Net5.rte[10].queue[0] rxBytes:histogram
field count 88
field mean 1500.3409090909
field stddev 3.1980107453488
field min 1500
field max 1530
field sum 132030
field sqrsum 198090900
attr interpolationmode none
attr title "received packet byte length, histogram"
attr unit bytes
bin	-inf	0
bin	1499	0
bin	1500	87
bin	1501	0
bin	1502	0
bin	1503	0
bin	1504	0
bin	1505	0
bin	1506	0
bin	1507	0
bin	1508	0
bin	1509	0
bin	1510	0
bin	1511	0
bin	1512	0
bin	1513	0
bin	1514	0
bin	1515	0
bin	1516	0
bin	1517	0
bin	1518	0
bin	1519	0
bin	1520	0
bin	1521	0
bin	1522	0
bin	1523	0
bin	1524	0
bin	1525	0
bin	1526	0
bin	1527	0
bin	1528	0
bin	1529	0
bin	1530	1
bin	1531	0
scalar Net5.rte[10].queue[0] txBytes:count 91
attr interpolationmode none
attr title "transmitting packet byte length, count"
attr unit bytes
scalar Net5.rte[10].queue[0] txBytes:sum 136500
attr interpolationmode none
attr title "transmitting packet byte length, sum"
attr unit bytes
statistic Net5.rte[10].queue[0] txBytes:histogram
field count 91
field mean 1500
field stddev 0
field min 1500
field max 1500
field sum 136500
field sqrsum 204750000
attr interpolationmode none
attr title "transmitting packet byte length, histogram"
attr unit bytes
bin	-inf	0
bin	1499	0
bin	1500	91
bin	1501	0
scalar Net5.rte[10].queue[0] busy:timeavg 0.011814951859347
attr interpolationmode sample-hold
attr title "server busy state, timeavg"
scalar Net5.rte[10].queue[0] qlen:timeavg 0.0058425586117649
attr interpolationmode sample-hold
attr title "queue length, timeavg"
scalar Net5.rte[10].queue[0] qlen:max 5
attr interpolationmode sample-hold
attr title "queue length, max"
scalar Net5.rte[10].queue[0] drop:count 0
attr interpolationmode none
attr title "dropped packet byte length, count"
attr unit bytes
scalar Net5.rte[10].queue[0] drop:sum 0
attr interpolationmode none
attr title "dropped packet byte length, sum"
attr unit bytes
scalar Net5.rte[10].queue[1] rxBytes:count 103
attr interpolationmode none
attr title "received packet byte length, count"
attr unit bytes
scalar Net5.rte[10].queue[1] rxBytes:sum 154500
attr interpolationmode none
attr title "received packet byte length, sum"
attr unit bytes
statistic Net5.rte[10].queue[1] rxBytes:histogram
field count 103
field mean 1500
field stddev 0
field min 1500
field max 1500
field sum 154500
field sqrsum 231750000
attr interpolationmode none
attr title "received packet byte length, histogram"
attr unit bytes
bin	-inf	0
bin	1499	0
bin	1500	103
bin	1501	0
scalar Net5.rte[10].queue[1] txBytes:count 128
attr interpolationmode none
attr title "transmitting packet byte length, count"
attr unit bytes
scalar Net5.rte[10].queue[1] txBytes:sum 192030
attr interpolationmode none
attr title "transmitting packet byte length, sum"
attr unit bytes
statistic Net5.rte[10].queue[1] txBytes:histogram
field count 128
field mean 1500.234375
field stddev 2.6516504294496
field min 1500
field max 1530
field sum 192030
field sqrsum 288090900
attr interpolationmode none
attr title "transmitting packet byte length, histogram"
attr unit bytes
bin	-inf	0
bin	1499	0
bin	1500	127
bin	1501	0
bin	1502	0
bin	1503	0
bin	1504	0
bin	1505	0
bin	1506	0
bin	1507	0
bin	1508	0
bin	1509	0
bin	1510	0
bin	1511	0
bin	1512	0
bin	1513	0
bin	1514	0
bin	1515	0
bin	1516	0
bin	1517	0
bin	1518	0
bin	1519	0
bin	1520	0
bin	1521	0
bin	1522	0
bin	1523	0
bin	1524	0
bin	1525	0
bin	1526	0
bin	1527	0
bin	1528	0
bin	1529	0
bin	1530	1
bin	1531	0
scalar Net5.rte[10].queue[1] busy:timeavg 0.016621430077266
attr interpolationmode sample-hold
attr title "server busy state, timeavg"
scalar Net5.rte[10].queue[1] qlen:timeavg 0.071598469393232
attr interpolationmode sample-hold
attr title "queue length, timeavg"
scalar Net5.rte[10].queue[1] qlen:max 19
attr interpolationmode sample-hold
attr title "queue length, max"
scalar Net5.rte[10].queue[1] drop:count 0
attr interpolationmode none
attr title "dropped packet byte length, count"
[...]
attr title "received packet byte length, count"
attr unit bytes
scalar Net5.rte[48].queue[0] rxBytes:sum 135020
attr interpolationmode none
attr title "received packet byte length, sum"
attr unit bytes
statistic Net5.rte[48].queue[0] rxBytes:histogram
field count 90
field mean 1500.2222222222
field stddev 2.1081851067701
field min 1500
field max 1520
field sum 135020
field sqrsum 202560400
attr interpolationmode none
attr title "received packet byte length, histogram"
attr unit bytes
bin	-inf	0
bin	1499	0
bin	1500	89
bin	1501	0
bin	1502	0
bin	1503	0
bin	1504	0
bin	1505	0
bin	1506	0
bin	1507	0
bin	1508	0
bin	1509	0
bin	1510	0
bin	1511	0
bin	1512	0
bin	1513	0
bin	1514	0
bin	1515	0
bin	1516	0
bin	1517	0
bin	1518	0
bin	1519	0
bin	1520	1
bin	1521	0
scalar Net5.rte[48].queue[0] txBytes:count 80
attr interpolationmode none
attr title "transmitting packet byte length, count"
attr unit bytes
scalar Net5.rte[48].queue[0] txBytes:sum 120000
attr interpolationmode none
attr title "transmitting packet byte length, sum"
attr unit bytes
statistic Net5.rte[48].queue[0] txBytes:histogram
field count 80
field mean 1500
field stddev 0
field min 1500
field max 1500
field sum 120000
field sqrsum 180000000
attr interpolationmode none
attr title "transmitting packet byte length, histogram"
attr unit bytes
bin	-inf	0
bin	1499	0
bin	1500	80
bin	1501	0
scalar Net5.rte[48].queue[0] busy:timeavg 0.01038677086536
attr interpolationmode sample-hold
attr title "server busy state, timeavg"
scalar Net5.rte[48].queue[0] qlen:timeavg 0.001558015629804
attr interpolationmode sample-hold
attr title "queue length, timeavg"
scalar Net5.rte[48].queue[0] qlen:max 3
attr interpolationmode sample-hold
attr title "queue length, max"
scalar Net5.rte[48].queue[0] drop:count 0
attr interpolationmode none
attr title "dropped packet byte length, count"
attr unit bytes
scalar Net5.rte[48].queue[0] drop:sum 0
attr interpolationmode none
attr title "dropped packet byte length, sum"
attr unit bytes
scalar Net5.rte[48].queue[1] rxBytes:count 66
attr interpolationmode none
attr title "received packet byte length, count"
attr unit bytes
scalar Net5.rte[48].queue[1] rxBytes:sum 99000
attr interpolationmode none
attr title "received packet byte length, sum"
attr unit bytes
statistic Net5.rte[48].queue[1] rxBytes:histogram
field count 66
field mean 1500
field stddev 0
field min 1500
field max 1500
field sum 99000
field sqrsum 148500000
attr interpolationmode none
attr title "received packet byte length, histogram"
attr unit bytes
bin	-inf	0
bin	1499	0
bin	1500	66
bin	1501	0
scalar Net5.rte[48].queue[1] txBytes:count 77
attr interpolationmode none
attr title "transmitting packet byte length, count"
attr unit bytes
scalar Net5.rte[48].queue[1] txBytes:sum 115500
attr interpolationmode none
attr title "transmitting packet byte length, sum"
attr unit bytes
statistic Net5.rte[48].queue[1] txBytes:histogram
field count 77
field mean 1500
field stddev 0
field min 1500
field max 1500
field sum 115500
field sqrsum 173250000
attr interpolationmode none
attr title "transmitting packet byte length, histogram"
attr unit bytes
bin	-inf	0
bin	1499	0
bin	1500	77
bin	1501	0
scalar Net5.rte[48].queue[1] busy:timeavg 0.0099972669579089
attr interpolationmode sample-hold
attr title "server busy state, timeavg"
scalar Net5.rte[48].queue[1] qlen:timeavg 0.01428180993987
attr interpolationmode sample-hold
attr title "queue length, timeavg"
scalar Net5.rte[48].queue[1] qlen:max 10
attr interpolationmode sample-hold
attr title "queue length, max"
scalar Net5.rte[48].queue[1] drop:count 0
attr interpolationmode none
attr title "dropped packet byte length, count"
attr unit bytes
scalar Net5.rte[48].queue[1] drop:sum 0
attr interpolationmode none
attr title "dropped packet byte length, sum"
attr unit bytes
scalar Net5.rte[48].queue[2] rxBytes:count 71
attr interpolationmode none
attr title "received packet byte length, count"
attr unit bytes
scalar Net5.rte[48].queue[2] rxBytes:sum 106500
attr interpolationmode none
attr title "received packet byte length, sum"
attr unit bytes
statistic Net5.rte[48].queue[2] rxBytes:histogram
field count 71
field mean 1500
field stddev 0
field min 1500
field max 1500
field sum 106500
field sqrsum 159750000
attr interpolationmode none
attr title "received packet byte length, histogram"
attr unit bytes
bin	-inf	0
bin	1499	0
bin	1500	71
bin	1501	0
scalar Net5.rte[48].queue[2] txBytes:count 96
attr interpolationmode none
attr title "transmitting packet byte length, count"
attr unit bytes
scalar Net5.rte[48].queue[2] txBytes:sum 144010
attr interpolationmode none
attr title "transmitting packet byte length, sum"
attr unit bytes
statistic Net5.rte[48].queue[2] txBytes:histogram
field count 96
field mean 1500.1041666667
field stddev 1.0206207262109
field min 1500
field max 1510
field sum 144010
field sqrsum 216030100
attr interpolationmode none
attr title "transmitting packet byte length, histogram"
attr unit bytes
bin	-inf	0
bin	1499	0
bin	1500	95
bin	1501	0
bin	1502	0
bin	1503	0
bin	1504	0
bin	1505	0
bin	1506	0
bin	1507	0
bin	1508	0
bin	1509	0
bin	1510	1
bin	1511	0
scalar Net5.rte[48].queue[2] busy:timeavg 0.012464990602662
attr interpolationmode sample-hold
attr title "server busy state, timeavg"
scalar Net5.rte[48].queue[2] qlen:timeavg 0.017138171927844
attr interpolationmode sample-hold
attr title "queue length, timeavg"
scalar Net5.rte[48].queue[2] qlen:max 11
attr interpolationmode sample-hold
attr title "queue length, max"
scalar Net5.rte[48].queue[2] drop:count 0
attr interpolationmode none
attr title "dropped packet byte length, count"
attr unit bytes
scalar Net5.rte[48].queue[2] drop:sum 0
attr interpolationmode none
attr title "dropped packet byte length, sum"
attr unit bytes
scalar Net5.rte[48].queue[3] rxBytes:count 103
attr interpolationmode none
attr title "received packet byte length, count"
attr unit bytes
scalar Net5.rte[48].queue[3] rxBytes:sum 154500
attr interpolationmode none
attr title "received packet byte length, sum"
attr unit bytes
statistic Net5.rte[48].queue[3] rxBytes:histogram
field count 103
field mean 1500
field stddev 0
field min 1500
field max 1500
field sum 154500
field sqrsum 231750000
attr interpolationmode none
attr title "received packet byte length, histogram"
attr unit bytes
bin	-inf	0
bin	1499	0
bin	1500	103
bin	1501	0
scalar Net5.rte[48].queue[3] txBytes:count 58
attr interpolationmode none
attr title "transmitting packet byte length, count"
attr unit bytes
scalar Net5.rte[48].queue[3] txBytes:sum 87000
attr interpolationmode none
attr title "transmitting packet byte length, sum"
attr unit bytes
statistic Net5.rte[48].queue[3] txBytes:histogram
field count 58
field mean 1500
field stddev 0
field min 1500
field max 1500
field sum 87000
field sqrsum 130500000
attr interpolationmode none
attr title "transmitting packet byte length, histogram"
attr unit bytes
bin	-inf	0
bin	1499	0
bin	1500	58
bin	1501	0
scalar Net5.rte[48].queue[3] busy:timeavg 0.0075304088773859
attr interpolationmode sample-hold
attr title "server busy state, timeavg"
scalar Net5.rte[48].queue[3] qlen:timeavg 0.0063618971550329
attr interpolationmode sample-hold
attr title "queue length, timeavg"
scalar Net5.rte[48].queue[3] qlen:max 7
attr interpolationmode sample-hold
attr title "queue length, max"
scalar Net5.rte[48].queue[3] drop:count 0
attr interpolationmode none
attr title "dropped packet byte length, count"
attr unit bytes
scalar Net5.rte[48].queue[3] drop:sum 0
attr interpolationmode none
attr title "dropped packet byte length, sum"
attr unit bytes
scalar Net5.rte[48].queue[4] rxBytes:count 63
attr interpolationmode none
attr title "received packet byte length, count"
attr unit bytes
scalar Net5.rte[48].queue[4] rxBytes:sum 94500
attr interpolationmode none
attr title "received packet byte length, sum"
attr unit bytes
statistic Net5.rte[48].queue[4] rxBytes:histogram
field count 63
field mean 1500
field stddev 0
field min 1500
field max 1500
field sum 94500
field sqrsum 141750000
attr interpolationmode none
attr title "received packet byte length, histogram"
attr unit bytes
bin	-inf	0
bin	1499	0
bin	1500	63
bin	1501	0
scalar Net5.rte[48].queue[4] txBytes:count 70
attr interpolationmode none
attr title "transmitting packet byte length, count"
attr unit bytes
scalar Net5.rte[48].queue[4] txBytes:sum 105000
attr interpolationmode none
attr title "transmitting packet byte length, sum"
attr unit bytes
statistic Net5.rte[48].queue[4] txBytes:histogram
field count 70
field mean 1500
field stddev 0
field min 1500
field max 1500
field sum 105000
field sqrsum 157500000
attr interpolationmode none
attr title "transmitting packet byte length, histogram"
attr unit bytes
bin	-inf	0
bin	1499	0
bin	1500	70
bin	1501	0
scalar Net5.rte[48].queue[4] busy:timeavg 0.0090884245071899
attr interpolationmode sample-hold
attr title "server busy state, timeavg"
scalar Net5.rte[48].queue[4] qlen:timeavg 0.017138171927844
attr interpolationmode sample-hold
attr title "queue length, timeavg"
scalar Net5.rte[48].queue[4] qlen:max 11
attr interpolationmode sample-hold
attr title "queue length, max"
scalar Net5.rte[48].queue[4] drop:count 0
attr interpolationmode none
attr title "dropped packet byte length, count"
attr unit bytes
scalar Net5.rte[48].queue[4] drop:sum 0
attr interpolationmode none
attr title "dropped packet byte length, sum"
attr unit bytes
scalar Net5.rte[48].queue[5] rxBytes:count 41
attr interpolationmode none
attr title "received packet byte length, count"
attr unit bytes
scalar Net5.rte[48].queue[5] rxBytes:sum 61500
attr interpolationmode none
attr title "received packet byte length, sum"
attr unit bytes
statistic Net5.rte[48].queue[5] rxBytes:histogram
field count 41
field mean 1500
field stddev 0
field min 1500
field max 1500
field sum 61500
field sqrsum 92250000
attr interpolationmode none
attr title "received packet byte length, histogram"
attr unit bytes
bin	-inf	0
bin	1499	0
bin	1500	41
bin	1501	0
scalar Net5.rte[48].queue[5] txBytes:count 83
attr interpolationmode none
attr title "transmitting packet byte length, count"
attr unit bytes
scalar Net5.rte[48].queue[5] txBytes:sum 124520
attr interpolationmode none
attr title "transmitting packet byte length, sum"
attr unit bytes
statistic Net5.rte[48].queue[5] txBytes:histogram
field count 83
field mean 1500.2409638554
field stddev 2.1952851997958
field min 1500
field max 1520
field sum 124520
field sqrsum 186810400
attr interpolationmode none
attr title "transmitting packet byte length, histogram"
attr unit bytes
bin	-inf	0
bin	1499	0
bin	1500	82
bin	1501	0
bin	1502	0
bin	1503	0
bin	1504	0
bin	1505	0
bin	1506	0
bin	1507	0
bin	1508	0
bin	1509	0
bin	1510	0
bin	1511	0
bin	1512	0
bin	1513	0
bin	1514	0
bin	1515	0
bin	1516	0
bin	1517	0
bin	1518	0
bin	1519	0
bin	1520	1
bin	1521	0
scalar Net5.rte[48].queue[5] busy:timeavg 0.010778005901271
attr interpolationmode sample-hold
attr title "server busy state, timeavg"
scalar Net5.rte[48].queue[5] qlen:timeavg 0.0010153540680689
attr interpolationmode sample-hold
attr title "queue length, timeavg"
scalar Net5.rte[48].queue[5] qlen:max 2
attr interpolationmode sample-hold
attr title "queue length, max"
scalar Net5.rte[48].queue[5] drop:count 0
attr interpolationmode none
attr title "dropped packet byte length, count"
attr unit bytes
scalar Net5.rte[48].queue[5] drop:sum 0
attr interpolationmode none
attr title "dropped packet byte length, sum"
attr unit bytes
scalar Net5.rte[49].app hopCount:mean 2.9452054794521
attr interpolationmode none
attr title "hop count of arrived packets, mean"
scalar Net5.rte[49].app hopCount:max 5
attr interpolationmode none
attr title "hop count of arrived packets, max"
scalar Net5.rte[49].app endToEndDelay:mean 0.32709384043659
attr interpolationmode none
attr title "end-to-end delay of arrived packets, mean"
attr unit s
scalar Net5.rte[49].app endToEndDelay:max 0.588333333351
attr interpolationmode none
attr title "end-to-end delay of arrived packets, max"
attr unit s
statistic Net5.rte[49].routing outputIf:histogram
field count 253
field mean 0.8300395256917
field stddev 1.3739233874645
field min -1
field max 3
field sum 210
field sqrsum 650
attr interpolationmode none
attr title "output interface for each routed packet, histogram"
bin	-inf	0
bin	-2	0
bin	-1	73
bin	0	17
bin	1	70
bin	2	66
bin	3	27
bin	4	0
scalar Net5.rte[49].routing drop:count 0
attr interpolationmode none
attr title "dropped packet byte length, count"
attr unit bytes
scalar Net5.rte[49].routing drop:sum 0
attr interpolationmode none
attr title "dropped packet byte length, sum"
attr unit bytes
scalar Net5.rte[49].queue[0] rxBytes:count 15
attr interpolationmode none
attr title "received packet byte length, count"
attr unit bytes
scalar Net5.rte[49].queue[0] rxBytes:sum 22500
attr interpolationmode none
attr title "received packet byte length, sum"
attr unit bytes
statistic Net5.rte[49].queue[0] rxBytes:histogram
field count 15
field mean 1500
field stddev 0
field min 1500
field max 1500
field sum 22500
field sqrsum 33750000
attr interpolationmode none
attr title "received packet byte length, histogram"
attr unit bytes
bin	-inf	0
bin	1499	0
bin	1500	15
bin	1501	0
scalar Net5.rte[49].queue[0] txBytes:count 17
attr interpolationmode none
attr title "transmitting packet byte length, count"
attr unit bytes
scalar Net5.rte[49].queue[0] txBytes:sum 25500
attr interpolationmode none
attr title "transmitting packet byte length, sum"
attr unit bytes
statistic Net5.rte[49].queue[0] txBytes:histogram
field count 17
field mean 1500
field stddev 0
field min 1500
field max 1500
field sum 25500
field sqrsum 38250000
attr interpolationmode none
attr title "transmitting packet byte length, histogram"
attr unit bytes
bin	-inf	0
bin	1499	0
bin	1500	17
bin	1501	0
scalar Net5.rte[49].queue[0] busy:timeavg 0.002207188808889
attr interpolationmode sample-hold
attr title "server busy state, timeavg"
scalar Net5.rte[49].queue[0] qlen:timeavg 0.0038950390745099
attr interpolationmode sample-hold
attr title "queue length, timeavg"
scalar Net5.rte[49].queue[0] qlen:max 4
attr interpolationmode sample-hold
attr title "queue length, max"
scalar Net5.rte[49].queue[0] drop:count 0
attr interpolationmode none
attr title "dropped packet byte length, count"
attr unit bytes
scalar Net5.rte[49].queue[0] drop:sum 0
attr interpolationmode none
attr title "dropped packet byte length, sum"
attr unit bytes
scalar Net5.rte[49].queue[1] rxBytes:count 38
attr interpolationmode none
attr title "received packet byte length, count"
attr unit bytes
scalar Net5.rte[49].queue[1] rxBytes:sum 57000
attr interpolationmode none
attr title "received packet byte length, sum"
attr unit bytes
statistic Net5.rte[49].queue[1] rxBytes:histogram
field count 38
field mean 1500
field stddev 0
field min 1500
field max 1500
field sum 57000
field sqrsum 85500000
attr interpolationmode none
attr title "received packet byte length, histogram"
attr unit bytes
bin	-inf	0
bin	1499	0
bin	1500	38
bin	1501	0
scalar Net5.rte[49].queue[1] txBytes:count 70
attr interpolationmode none
attr title "transmitting packet byte length, count"
attr unit bytes
scalar Net5.rte[49].queue[1] txBytes:sum 105010
attr interpolationmode none
attr title "transmitting packet byte length, sum"
attr unit bytes
statistic Net5.rte[49].queue[1] txBytes:histogram
field count 70
field mean 1500.1428571429
field stddev 1.1952286093086
field min 1500
field max 1510
field sum 105010
field sqrsum 157530100
attr interpolationmode none
attr title "transmitting packet byte length, histogram"
attr unit bytes
bin	-inf	0
bin	1497	0
bin	1498	0
bin	1499	0
bin	1500	69
bin	1501	0
bin	1502	0
bin	1503	0
bin	1504	0
bin	1505	0
bin	1506	0
bin	1507	0
bin	1508	0
bin	1509	0
bin	1510	1
bin	1511	0
bin	1512	0
bin	1513	0
scalar Net5.rte[49].queue[1] busy:timeavg 0.0090892900714198
attr interpolationmode sample-hold
attr title "server busy state, timeavg"
scalar Net5.rte[49].queue[1] qlen:timeavg 0.060372472529156
attr interpolationmode sample-hold
attr title "queue length, timeavg"
scalar Net5.rte[49].queue[1] qlen:max 17
attr interpolationmode sample-hold
attr title "queue length, max"
scalar Net5.rte[49].queue[1] drop:count 0
attr interpolationmode none
attr title "dropped packet byte length, count"
attr unit bytes
scalar Net5.rte[49].queue[1] drop:sum 0
attr interpolationmode none
attr title "dropped packet byte length, sum"
attr unit bytes
scalar Net5.rte[49].queue[2] rxBytes:count 30
attr interpolationmode none
attr title "received packet byte length, count"
attr unit bytes
scalar Net5.rte[49].queue[2] rxBytes:sum 45000
attr interpolationmode none
attr title "received packet byte length, sum"
attr unit bytes
statistic Net5.rte[49].queue[2] rxBytes:histogram
field count 30
field mean 1500
field stddev 0
field min 1500
field max 1500
field sum 45000
field sqrsum 67500000
attr interpolationmode none
attr title "received packet byte length, histogram"
attr unit bytes
bin	-inf	0
bin	1499	0
bin	1500	30
bin	1501	0
scalar Net5.rte[49].queue[2] txBytes:count 66
attr interpolationmode none
attr title "transmitting packet byte length, count"
attr unit bytes
scalar Net5.rte[49].queue[2] txBytes:sum 99000
attr interpolationmode none
attr title "transmitting packet byte length, sum"
attr unit bytes
statistic Net5.rte[49].queue[2] txBytes:histogram
field count 66
field mean 1500
field stddev 0
field min 1500
field max 1500
field sum 99000
field sqrsum 148500000
attr interpolationmode none
attr title "transmitting packet byte length, histogram"
attr unit bytes
bin	-inf	0
bin	1499	0
bin	1500	66
bin	1501	0
scalar Net5.rte[49].queue[2] busy:timeavg 0.0085690859639219
attr interpolationmode sample-hold
attr title "server busy state, timeavg"
scalar Net5.rte[49].queue[2] qlen:timeavg 0.076871988295354
attr interpolationmode sample-hold
attr title "queue length, timeavg"
scalar Net5.rte[49].queue[2] qlen:max 20
attr interpolationmode sample-hold
attr title "queue length, max"
scalar Net5.rte[49].queue[2] drop:count 0
attr interpolationmode none
attr title "dropped packet byte length, count"
attr unit bytes
scalar Net5.rte[49].queue[2] drop:sum 0
attr interpolationmode none
attr title "dropped packet byte length, sum"
attr unit bytes
scalar Net5.rte[49].queue[3] rxBytes:count 17
attr interpolationmode none
attr title "received packet byte length, count"
attr unit bytes
scalar Net5.rte[49].queue[3] rxBytes:sum 25500
attr interpolationmode none
attr title "received packet byte length, sum"
attr unit bytes
statistic Net5.rte[49].queue[3] rxBytes:histogram
field count 17
field mean 1500
field stddev 0
field min 1500
field max 1500
field sum 25500
field sqrsum 38250000
attr interpolationmode none
attr title "received packet byte length, histogram"
attr unit bytes
bin	-inf	0
bin	1499	0
bin	1500	17
bin	1501	0
scalar Net5.rte[49].queue[3] txBytes:count 27
attr interpolationmode none
attr title "transmitting packet byte length, count"
attr unit bytes
scalar Net5.rte[49].queue[3] txBytes:sum 40500
attr interpolationmode none
attr title "transmitting packet byte length, sum"
attr unit bytes
statistic Net5.rte[49].queue[3] txBytes:histogram
field count 27
field mean 1500
field stddev 0
field min 1500
field max 1500
field sum 40500
field sqrsum 60750000
attr interpolationmode none
attr title "transmitting packet byte length, histogram"
attr unit bytes
bin	-inf	0
bin	1499	0
bin	1500	27
bin	1501	0
scalar Net5.rte[49].queue[3] busy:timeavg 0.003505535167059
attr interpolationmode sample-hold
attr title "server busy state, timeavg"
scalar Net5.rte[49].queue[3] qlen:timeavg 0.0066215664266669
attr interpolationmode sample-hold
attr title "queue length, timeavg"
scalar Net5.rte[49].queue[3] qlen:max 6
attr interpolationmode sample-hold
attr title "queue length, max"
scalar Net5.rte[49].queue[3] drop:count 0
attr interpolationmode none
attr title "dropped packet byte length, count"
attr unit bytes
scalar Net5.rte[49].queue[3] drop:sum 0
attr interpolationmode none
attr title "dropped packet byte length, sum"
attr unit bytes

