version 2
run General-5-20190610-18:03:50-4688
attr configname General
attr datetime 20190610-18:03:50
attr experiment General
attr inifile omnetpp.ini
attr iterationvars ""
attr iterationvarsf ""
attr measurement ""
attr network networks.Net5
attr processid 4688
attr repetition 5
attr replication #5
attr resultdir results
attr runnumber 5
attr seedset 5
param **.appType "\"App\""
param **.app.packetLength "1500 bytes"
param **.app.totalNodes 10
param **.destAddresses "\"0\""
param **.sendIaTime "uniform(5s, 10s)"
param **.sendIaTimeEvil 10ms

vector 0 Net5.rte[0].app endToEndDelay:vector ETV
attr interpolationmode none
attr title "end-to-end delay of arrived packets, vector"
attr unit s
vector 1 Net5.rte[7].app endToEndDelay:vector ETV
attr interpolationmode none
attr title "end-to-end delay of arrived packets, vector"
attr unit s
vector 2 Net5.rte[9].app endToEndDelay:vector ETV
attr interpolationmode none
attr title "end-to-end delay of arrived packets, vector"
attr unit s
vector 3 Net5.rte[1].app endToEndDelay:vector ETV
attr interpolationmode none
attr title "end-to-end delay of arrived packets, vector"
attr unit s
vector 4 Net5.rte[4].app endToEndDelay:vector ETV
attr interpolationmode none
attr title "end-to-end delay of arrived packets, vector"
attr unit s
vector 5 Net5.rte[5].app endToEndDelay:vector ETV
attr interpolationmode none
attr title "end-to-end delay of arrived packets, vector"
attr unit s
vector 6 Net5.rte[3].app endToEndDelay:vector ETV
attr interpolationmode none
attr title "end-to-end delay of arrived packets, vector"
attr unit s
vector 7 Net5.rte[6].app endToEndDelay:vector ETV
attr interpolationmode none
attr title "end-to-end delay of arrived packets, vector"
attr unit s
vector 8 Net5.rte[2].app endToEndDelay:vector ETV
attr interpolationmode none
attr title "end-to-end delay of arrived packets, vector"
attr unit s
vector 9 Net5.rte[8].app endToEndDelay:vector ETV
attr interpolationmode none
attr title "end-to-end delay of arrived packets, vector"
attr unit s
0	31	5.682567270406	0.406666666668
0	181	6.495900603742	0.406666666668
0	309	6.670771837226	0.306666666668
0	424	6.872438503893	0.203333333334
0	576	7.309233937078	0.406666666668
0	774	7.835351143563	0.203333333334
0	787	7.842017810231	0.413333333336
0	923	8.357055949944	0.305000000001
0	958	8.458722616611	0.203333333334
0	1124	9.664972533272	0.101666666667
0	1138	9.666639199939	0.205000000001
0	1342	10.405569432536	0.203333333334
0	1454	10.60890276587	0.305000000001
0	1530	10.813054521833	0.305000000001
0	1630	11.118054521834	0.305000000001
0	1657	11.74230211421	0.305000000001
0	1685	12.352335447545	0.305033333334
0	1895	12.962335447547	0.305000000001
0	2065	13.478012782123	0.305000000001
0	2116	13.681346115457	0.406666666668
0	2268	14.072840810387	0.203333333334
0	2295	14.081174143722	0.313333333336
0	2326	14.763926920415	0.203333333334
0	2427	15.170638031527	0.203333333334
0	2450	15.172304698194	0.205000000001
0	2703	15.885991608191	0.305000000001
0	2877	16.190991608192	0.305000000001
0	2949	16.318276498234	0.305000000001
0	2990	16.419943164901	0.203333333334
0	3063	16.62505853512	0.101666666667
0	3171	16.828391868454	0.203333333334
0	3424	18.074879144446	0.306666666668
0	3512	18.276545811113	0.305000000001
0	3631	18.62231206864	0.101666666667
0	3645	18.623978735307	0.408333333335
0	3713	19.608236278141	0.203333333334
0	3780	20.014947389253	0.203377777778
0	3897	20.150096249595	0.205000000001
0	4099	20.421614055921	0.203333333334
0	4162	20.555096249596	0.305000000001
0	4275	21.331319731196	0.203333333334
0	4367	21.53465306453	0.203333333334
0	4412	22.15093553502	0.203333333334
0	4495	22.557691090576	0.203333333334
0	4518	22.559357757243	0.205000000001
0	4749	23.471480279065	0.203333333334
0	4884	23.878509667195	0.406666666668
0	4990	24.385243000529	0.305000000001
0	5098	24.657530735779	0.305000000001
0	5104	24.69024300053	0.305000000001
0	5141	25.267664069113	0.305133333333
0	5391	25.877664069115	0.305000000001
0	5515	26.114296942511	0.205000000001
0	5587	26.315963609178	0.203333333334
0	5779	27.308738953071	0.203333333334
0	6066	27.512072286405	0.203333333334
0	6093	27.568060858641	0.101666666667
0	6107	27.569727525308	0.306666666668
0	6249	27.797967828412	0.305000000001
0	6252	27.806301161747	0.415000000003
0	6263	28.676898659173	0.203333333334
0	6293	29.083698659173	0.203466666666
0	6629	29.490365325841	0.203333333334
0	6655	29.524350295942	0.305000000001
0	6706	29.727683629276	0.406666666668
0	6898	31.380277270185	0.203333333334
0	6916	31.386943936853	0.311666666669
0	7099	32.027666445489	0.305000000001
0	7112	32.035784366908	0.101666666667
0	7247	32.188821569613	0.306666666668
0	7411	32.39048823628	0.305000000001
0	7462	32.442451033576	0.305000000001
0	7499	32.637899778822	0.305000000001
0	7521	32.639566445489	0.306666666668
0	7755	33.570938226404	0.203333333334
0	7895	33.875938226405	0.305000000001
0	8004	34.179527388982	0.306666666668
0	8074	34.482860722316	0.305000000001
0	8202	35.679297023885	0.203333333334
0	8266	35.844117791526	0.203333333334
0	8293	35.852451124861	0.313333333336
0	8325	36.086163690553	0.203533333334
0	8508	36.492830357221	0.203333333334
0	8602	37.328469480554	0.203333333334
0	8824	37.735336147222	0.203333333334
0	8849	37.737002813889	0.205000000001
0	8895	37.747305910332	0.306666666668
0	9063	37.948972576999	0.305000000001
0	9161	38.053682337979	0.306666666668
0	9366	38.45868233798	0.406666666668
0	9422	38.629596664207	0.305000000001
0	9441	38.731263330874	0.305000000001
0	9607	41.34835092045	0.305000000001
0	9646	41.450017587117	0.203333333334
0	9838	42.213007227849	0.306666666668
0	9910	42.414673894516	0.305000000001
0	9981	43.032490793518	0.101666666667
0	10104	43.235824126852	0.203333333334
0	10128	43.25298685158	0.203333333334
0	10167	43.65987574047	0.203555555556
0	10350	44.066542407138	0.203333333334
0	10522	45.38126737139	0.205000000001
0	10773	45.786267371391	0.305000000001
0	10788	45.796400704725	0.101666666667
0	10809	45.799734038059	0.308333333335
0	10860	46.271930537319	0.305000000001
0	11007	46.882297203987	0.305000000001
0	11029	46.883963870654	0.306666666668
0	11203	47.245995919822	0.305000000001
0	11317	48.487053212484	0.203333333334
0	11425	48.792053212485	0.305000000001
0	11593	49.887101518059	0.203333333334
0	11620	49.895434851394	0.313333333336
0	11878	52.184615317203	0.205000000001
0	11939	52.255899619282	0.101666666667
0	12188	52.456871186357	0.203333333334
0	12197	52.459232952616	0.203333333334
0	12290	52.589615317204	0.305000000001
0	12332	52.738672730912	0.203333333334
0	12363	52.870004519689	0.406666666668
0	12498	53.145606064246	0.203333333334
0	12521	53.147272730913	0.205000000001
0	12709	53.415664071284	0.305000000001
0	12822	53.533012010089	0.205000000001
0	12945	53.734678676756	0.203333333334
1	37	5.754105170556	0.305000000001
1	105	6.364105170558	0.305000000001
1	415	6.812567270412	0.31666666667
1	485	6.980771837228	0.311666666669
1	567	7.215900603746	0.313333333336
1	732	7.733684476896	0.101666666667
1	765	7.743684476898	0.315000000003
1	915	8.262055949945	0.210000000002
1	982	8.567055949946	0.311666666669
1	1187	9.77163919994	0.208333333335
1	1193	9.776639199941	0.315000000003
1	1223	10.100558321424	0.101666666667
1	1278	10.303902765869	0.101666666667
1	1312	10.305569432536	0.103333333334
1	1558	10.819721188501	0.311666666669
1	1619	11.026387855169	0.213333333336
1	1833	12.669002114215	0.31666666667
1	1888	12.867335447548	0.210000000002
1	2051	13.383012782124	0.210000000002
1	2107	13.588012782125	0.313333333336
1	2287	14.077840810388	0.310000000002
1	2301	14.181174143722	0.311666666669
1	2513	15.280638031529	0.313333333336
1	2583	15.48563803153	0.315000000003
1	2731	15.892658274859	0.311666666669
1	2829	16.099324941527	0.213333333336
1	2941	16.223276498235	0.210000000002
1	3049	16.528369646232	0.311759814665
1	3130	16.726725201787	0.101666666667
1	3163	16.733391868455	0.210000000002
1	3200	17.361456922222	0.203333333334
1	3238	17.658307508166	0.305000000001
1	3256	17.768212477778	0.203422222222
1	3476	18.181545811114	0.210000000002
1	3622	18.530645401975	0.315000000003
1	3673	18.728978735308	0.208333333335
1	3719	19.639996249594	0.305000000001
1	3976	20.250096249595	0.305000000001
1	4005	20.25842958293	0.313333333336
1	4059	20.331614055923	0.31666666667
1	4159	20.529947389256	0.311666666669
1	4361	21.439653064531	0.311666666669
1	4391	21.642986397865	0.311666666669
1	4575	22.667691090578	0.313333333336
1	4643	22.872691090579	0.315000000003
1	4713	23.369813612398	0.101666666667
1	4878	23.785176333863	0.313333333336
1	5018	24.391909667197	0.311666666669
1	5087	24.598576333865	0.213333333336
1	5127	24.96253073578	0.305000000001
1	5260	25.572664069114	0.305000000001
1	5301	25.584330735783	0.31666666667
1	5553	26.214296942511	0.101666666667
1	5579	26.222630275846	0.313333333336
1	5937	27.417072286406	0.311666666669
1	5989	27.478060858643	0.215000000003
1	6195	27.62040561974	0.311666666669
1	6211	27.674727525309	0.208333333335
1	6230	27.702967828413	0.210000000002
1	6243	27.711301161748	0.320000000004
1	6572	29.400365325843	0.31666666667
1	6676	29.529350295943	0.310000000002
1	6690	29.598698659176	0.311666666669
1	6703	29.634350295944	0.313333333336
1	6836	31.278610603518	0.101666666667
1	6877	31.290277270187	0.215000000003
1	6962	31.678710458501	0.203333333334
1	7141	32.085488236279	0.203333333334
1	7183	32.093821569614	0.211666666669
1	7232	32.144117700243	0.210000000002
1	7400	32.350784366911	0.213333333336
1	7529	32.642899778823	0.310000000002
1	7623	32.952899778825	0.315000000003
1	7844	33.679271559739	0.311666666669
1	7868	33.780938226406	0.210000000002
1	7968	34.087860722317	0.215000000003
1	8080	34.487860722317	0.310000000002
1	8285	35.849117791527	0.310000000002
1	8309	35.952451124861	0.311666666669
1	8503	36.402830357223	0.31666666667
1	8535	36.601163690556	0.311666666669
1	8592	37.237172576998	0.203333333334
1	8742	37.633669480555	0.101666666667
1	8769	37.643972576998	0.203333333334
1	8815	37.652305910333	0.211666666669
1	9104	37.962015671314	0.215000000003
1	9135	38.050336147225	0.315000000003
1	9300	38.365349004648	0.313333333336
1	9417	38.534596664208	0.210000000002
1	9447	38.736263330875	0.310000000002
1	9611	41.34835092045	0.101666666667
1	9637	41.355017587118	0.311666666669
1	9663	41.499496116735	0.203333333334
1	9677	41.671433197766	0.203333333334
1	9700	41.906340561181	0.203511111112
1	9899	42.323007227851	0.213333333336
1	10078	43.139157460186	0.208333333335
1	10143	43.344157460187	0.311666666669
1	10345	43.97654240714	0.31666666667
1	10377	44.174875740473	0.311666666669
1	10406	44.871000704721	0.305000000001
1	10546	45.48126737139	0.305000000001
1	10575	45.489600704725	0.313333333336
1	10766	45.703067371393	0.211666666669
1	10840	45.903067371393	0.208333333335
1	10994	46.788963870655	0.211666666669
1	11200	47.19729720399	0.315000000003
1	11209	47.250995919823	0.310000000002
1	11402	48.595386545819	0.311666666669
1	11422	48.697053212486	0.210000000002
1	11612	49.89210151806	0.310000000002
1	11626	49.995434851394	0.311666666669
1	12032	52.292948650538	0.313333333336
1	12059	52.35520451969	0.101666666667
1	12127	52.36256628595	0.208333333335
1	12254	52.497948650539	0.213333333336
1	12285	52.567566285951	0.311666666669
1	12597	53.255606064248	0.313333333336
1	12774	53.460606064249	0.315000000003
1	12883	53.633012010089	0.101666666667
1	12910	53.641345343424	0.313333333336
1	12935	53.720664071285	0.305000000001
1	12994	53.877709017101	0.203333333334
2	67	6.059105170557	0.305000000001
2	286	6.669105170559	0.305000000001
2	328	6.684105170562	0.320000000004
2	361	6.714233937079	0.218333333337
2	539	7.109233937078	0.206666666668
2	698	7.635351143563	0.206666666668
2	784	7.840351143564	0.208333333335
2	909	8.260389283278	0.208333333335
2	971	8.463722616612	0.208333333335
2	989	9.258305866604	0.101666666667
2	1005	9.455328184047	0.101666666667
2	1011	9.461639199938	0.101666666667
2	1127	9.664972533272	0.101666666667
2	1369	10.410569432537	0.208333333335
2	1466	10.609721188499	0.101666666667
2	1502	10.622236099206	0.318333333337
2	1642	11.13138785517	0.318333333337
2	1787	12.570668780882	0.218333333337
2	1882	12.864002114214	0.206666666668
2	2037	13.37967944879	0.206666666668
2	2077	13.481346115457	0.206666666668
2	2161	13.869507477053	0.101666666667
2	2286	14.077840810388	0.208333333335
2	2312	14.560593587081	0.203333333334
2	2344	14.967304698193	0.203377777778
2	2559	15.387304698197	0.21666666667
2	2641	15.682658274857	0.101666666667
2	2694	15.809876498233	0.203333333334
2	2889	16.204324941528	0.318333333337
2	2894	16.216609831567	0.203333333334
2	2935	16.221609831568	0.208333333335
2	3065	16.62505853512	0.101666666667
2	3181	16.833391868455	0.208333333335
2	3453	18.088212477782	0.320000000004
2	3470	18.17821247778	0.206666666668
2	3567	18.42231206864	0.206666666668
2	3634	18.62231206864	0.101666666667
2	3691	19.334996249593	0.305000000001
2	3747	19.945096249594	0.3051
2	3973	20.23328072259	0.218333333337
2	4112	20.426614055922	0.208333333335
2	4174	20.568429582932	0.318333333337
2	4191	20.924541953418	0.203333333334
2	4274	21.331319731196	0.203333333334
2	4319	21.337986397864	0.210000000002
2	4529	22.562691090577	0.208333333335
2	4621	22.774357757246	0.21666666667
2	4787	23.476480279066	0.208333333335
2	4848	23.678509667195	0.206666666668
2	4934	24.181909667195	0.101666666667
2	5116	24.703576333866	0.318333333337
2	5251	25.48599740245	0.218333333337
2	5254	25.502541386954	0.203333333334
2	5403	25.890997402451	0.318333333337
2	5406	25.90929694251	0.203422222222
2	5597	26.320963609179	0.208333333335
2	5632	26.901916730849	0.203333333334
2	5778	27.308738953071	0.203333333334
2	5823	27.315405619739	0.210000000002
2	6096	27.568060858641	0.101666666667
2	6131	27.583060858644	0.320000000004
2	6161	27.597967828412	0.206666666668
2	6224	27.699634495079	0.206666666668
2	6460	29.30203199251	0.218333333337
2	6472	29.321016962608	0.101666666667
2	6642	29.495365325842	0.208333333335
2	6669	29.527683629276	0.206666666668
2	6910	31.385277270186	0.208333333335
2	6923	31.395277270188	0.320000000004
2	7114	32.035784366908	0.101666666667
2	7174	32.088821569613	0.206666666668
2	7423	32.403821569616	0.318333333337
2	7435	32.434566445488	0.101666666667
2	7474	32.455784366912	0.318333333337
2	7603	32.854566445492	0.21666666667
2	7630	32.960782670848	0.203333333334
2	7671	33.36760489307	0.203488888888
2	7862	33.777604893072	0.206666666668
2	8021	34.192860722318	0.320000000004
2	8033	34.279527388982	0.101666666667
2	8149	35.640784458192	0.101666666667
2	8284	35.849117791527	0.208333333335
2	8300	35.882630357219	0.203333333334
2	8312	35.979937011941	0.101666666667
2	8397	36.289497023887	0.203333333334
2	8453	36.30449702389	0.218333333337
2	8806	37.647305910332	0.206666666668
2	8859	37.74200281389	0.210000000002
2	9076	37.952002813892	0.21666666667
2	9107	37.962305910335	0.318333333337
2	9180	38.067015671315	0.320000000004
2	9243	38.25868233798	0.206666666668
2	9381	38.52792999754	0.101666666667
2	9412	38.532929997541	0.208333333335
2	9520	41.145017587116	0.101666666667
2	9656	41.455017587118	0.208333333335
2	9878	42.226340561185	0.320000000004
2	9922	42.428007227852	0.318333333337
2	9983	43.032490793518	0.101666666667
2	10117	43.240824126853	0.208333333335
2	10134	43.266780085829	0.203333333334
2	10154	43.456320184914	0.203333333334
2	10239	43.863209073804	0.203333333334
2	10295	43.878209073807	0.218333333337
2	10392	44.56600070472	0.305000000001
2	10434	45.176267371389	0.305266666668
2	10748	45.698067371392	0.206666666668
2	10791	45.796400704725	0.101666666667
2	10819	45.801400704726	0.320133333336
2	10988	46.783963870654	0.206666666668
2	11117	47.042662586488	0.101666666667
2	11166	47.098963870657	0.21666666667
2	11223	47.876786545816	0.203333333334
2	11243	48.28371987915	0.2036
2	11416	48.693719879152	0.206666666668
2	11486	49.683768184725	0.101666666667
2	11611	49.89210151806	0.208333333335
2	11776	52.052421841504	0.101666666667
2	11887	52.187948650537	0.208333333335
2	11938	52.255899619282	0.101666666667
2	11971	52.257566285949	0.103333333334
2	12209	52.461871186358	0.208333333335
2	12269	52.535339397578	0.203333333334
2	12303	52.60294865054	0.318333333337
2	12382	52.942272730912	0.2036
2	12696	53.362272730916	0.21666666667
2	12780	53.486671186355	0.203333333334
2	12836	53.536345343423	0.208333333335
2	12955	53.739678676757	0.208333333335
2	13002	53.893537853023	0.203533333334
3	73	6.089233937074	0.406666666668
3	80	6.135262436799	0.101666666667
3	314	6.672438503893	0.308333333335
3	425	6.872438503893	0.203333333334
3	445	6.90256727041	0.406666666668
3	468	6.904233937077	0.408333333335
3	522	7.022017810227	0.203333333334
3	583	7.428684476895	0.203333333334
3	775	7.835351143563	0.203333333334
3	839	8.15372261661	0.101666666667
3	959	8.458722616611	0.203333333334
3	1123	9.664972533272	0.203333333334
3	1200	9.868305866606	0.305000000001
3	1343	10.405569432536	0.203333333334
3	1465	10.609721188499	0.101666666667
3	1469	10.610569432537	0.306666666668
3	1633	11.119721188501	0.306666666668
3	1841	12.759002114213	0.101666666667
3	1852	12.76066878088	0.408333333335
3	1904	13.071323893233	0.101666666667
3	1947	13.274679448789	0.101666666667
3	1977	13.276346115456	0.103333333334
3	2159	13.869507477053	0.101666666667
3	2269	14.072840810387	0.203333333334
3	2428	15.170638031527	0.203333333334
3	2590	15.577304698195	0.406666666668
3	2640	15.682658274857	0.101666666667
3	2846	16.1149431649	0.101666666667
3	2880	16.192658274859	0.306666666668
3	2991	16.419943164901	0.203333333334
3	3170	16.828391868454	0.305000000001
3	3172	16.828391868454	0.203333333334
3	3232	17.605578735304	0.305000000001
3	3413	18.073212477779	0.101666666667
3	3435	18.076545811113	0.308333333335
3	3479	18.215645401972	0.305066666667
3	3676	18.825645401974	0.305000000001
3	3893	20.148429582928	0.203333333334
3	4100	20.421614055921	0.203333333334
3	4119	20.428280722589	0.413333333336
3	4165	20.556762916263	0.306666666668
3	4298	21.332986397863	0.205000000001
3	4368	21.53465306453	0.203333333334
3	4496	22.557691090576	0.203333333334
3	4649	22.964357757244	0.406666666668
3	4653	23.064724723509	0.203333333334
3	4753	23.471843000527	0.203696054796
3	4776	23.473509667194	0.205362721463
3	4933	24.181909667195	0.101666666667
3	5107	24.691909667197	0.306666666668
3	5317	25.675997402448	0.408333333335
3	5394	25.879330735782	0.306666666668
3	5490	26.112630275844	0.203333333334
3	5588	26.315963609178	0.203333333334
3	5693	27.187912272855	0.101666666667
3	5802	27.310405619738	0.205000000001
3	5868	27.391301161744	0.101722222222
3	6067	27.512072286405	0.203333333334
3	6117	27.571394191975	0.308333333335
3	6139	27.594634495078	0.101666666667
3	6246	27.771394191975	0.305000000001
3	6326	29.117616962608	0.101666666667
3	6469	29.321016962608	0.101666666667
3	6500	29.322683629275	0.103333333334
3	6630	29.490365325841	0.203333333334
3	6649	29.497031992509	0.413333333336
3	6899	31.380277270185	0.203333333334
3	6911	31.385277270186	0.310000000002
3	7067	31.983821569612	0.101666666667
3	7284	32.239117700242	0.305000000001
3	7414	32.392154902947	0.306666666668
3	7433	32.434566445488	0.101666666667
3	7465	32.444117700243	0.306666666668
3	7636	33.04456644549	0.406666666668
3	7779	33.572604893071	0.205000000001
3	7814	33.672604893071	0.101666666667
3	8009	34.181194055649	0.308333333335
3	8031	34.279527388982	0.101666666667
3	8147	35.640784458192	0.101666666667
3	8267	35.844117791526	0.203333333334
3	8509	36.492830357221	0.203333333334
3	8512	36.494497023888	0.408333333335
3	8643	37.441782337979	0.305000000001
3	8697	37.542305910331	0.101666666667
3	8825	37.735336147222	0.203333333334
3	9073	37.950639243666	0.306666666668
3	9138	38.052015671312	0.305000000001
3	9166	38.055349004646	0.308333333335
3	9189	38.14200281389	0.406666666668
3	9309	38.426263330873	0.101666666667
3	9379	38.52792999754	0.101666666667
3	9519	41.145017587116	0.101666666667
3	9647	41.450017587117	0.203333333334
3	9845	42.214673894516	0.308333333335
3	9913	42.416340561183	0.306666666668
3	10105	43.235824126852	0.203333333334
3	10124	43.24249079352	0.311666666669
3	10160	43.470113419163	0.203333333334
3	10351	44.066542407138	0.203333333334
3	10354	44.068209073805	0.408333333335
3	10518	45.379600704723	0.203333333334
3	10646	45.593067371391	0.101666666667
3	10776	45.787934038058	0.306666666668
3	10849	45.999734038059	0.305000000001
3	10919	46.635884808709	0.101666666667
3	10930	46.678963870653	0.101666666667
3	10962	46.722943137132	0.203333333334
3	11001	46.839329253154	0.101777777778
3	11115	47.042662586488	0.101666666667
3	11212	47.288963870655	0.406666666668
3	11341	48.488719879151	0.205000000001
3	11372	48.588719879151	0.101666666667
3	11484	49.683768184725	0.101666666667
3	11594	49.887101518059	0.203333333334
3	11770	52.050004519689	0.203333333334
3	11873	52.182948650536	0.203333333334
3	12187	52.456871186357	0.203333333334
3	12191	52.458537853024	0.205000000001
3	12196	52.459232952616	0.305000000001
3	12206	52.460899619283	0.205000000001
3	12293	52.591281983871	0.306666666668
3	12499	53.145606064246	0.203333333334
3	12615	53.276671186357	0.406666666668
3	12797	53.531345343422	0.203333333334
3	12849	53.552272730914	0.406666666668
3	12926	53.690004519689	0.203333333334
3	12946	53.734678676756	0.203333333334
4	94	6.236929103466	0.101666666667
4	233	6.575771837227	0.211666666669
4	409	6.807567270411	0.311666666669
4	431	6.875771837227	0.206666666668
4	505	7.007567270411	0.105000000001
4	643	7.535351143563	0.106666666668
4	717	7.645389283275	0.203333333334
4	747	7.73701781023	0.105000000001
4	800	8.052055949943	0.203333333334
4	965	8.462055949945	0.206666666668
4	1148	9.668305866606	0.206666666668
4	1177	9.766639199939	0.203333333334
4	1323	10.307236099203	0.105000000001
4	1438	10.513902765871	0.210000000002
4	1476	10.611387855166	0.103333333334
4	1616	11.023054521835	0.210000000002
4	1671	12.047302114211	0.305000000001
4	1790	12.657335447546	0.305000000001
4	1826	12.664002114214	0.311666666669
4	1898	12.969657226566	0.101666666667
4	1910	13.173012782122	0.101688888889
4	2035	13.37967944879	0.105000000001
4	2160	13.869507477053	0.101666666667
4	2277	14.076174143721	0.206666666668
4	2454	15.173971364861	0.206666666668
4	2576	15.480980497079	0.310342465552
4	2626	15.606543164899	0.203333333334
4	2648	15.684324941524	0.103333333334
4	2778	16.013276498233	0.2034
4	2826	16.095991608193	0.210000000002
4	2999	16.423276498235	0.206666666668
4	3149	16.730058535121	0.105000000001
4	3158	16.731725201788	0.208333333335
4	3226	17.564790255556	0.203333333334
4	3345	17.971545811112	0.203333333334
4	3390	17.979879144447	0.211666666669
4	3538	18.32231206864	0.106666666668
4	3663	18.723978735307	0.203333333334
4	3900	20.151762916262	0.206666666668
4	4048	20.326614055922	0.311666666669
4	4106	20.424947389255	0.206666666668
4	4138	20.460096249597	0.210000000002
4	4310	21.336319731197	0.208333333335
4	4374	21.537986397864	0.206666666668
4	4522	22.56102442391	0.206666666668
4	4637	22.867691090578	0.310000000002
4	4740	23.375176333861	0.10702938813
4	4816	23.576843000528	0.105000000001
4	4941	24.183576333862	0.103333333334
4	5084	24.595243000531	0.210000000002
4	5292	25.579330735782	0.311666666669
4	5369	25.782664069116	0.210000000002
4	5520	26.115963609178	0.206666666668
4	5568	26.217630275845	0.105000000001
4	5770	27.289578939522	0.101666666667
4	5814	27.313738953072	0.208333333335
4	5986	27.474727525309	0.211666666669
4	6002	27.492967828411	0.101666666667
4	6045	27.497967828412	0.106666666668
4	6073	27.515405619739	0.206666666668
4	6201	27.669727525308	0.203333333334
4	6471	29.321016962608	0.101666666667
4	6561	29.395365325842	0.311666666669
4	6604	29.426016962609	0.105000000001
4	6636	29.493698659175	0.206666666668
4	6851	31.281943936852	0.105000000001
4	6874	31.286943936853	0.211666666669
4	6934	31.475377125167	0.203333333334
4	6992	31.882154902945	0.203444444444
4	7222	32.139117700242	0.205000000001
4	7335	32.295488236281	0.210000000002
4	7397	32.347451033577	0.210000000002
4	7434	32.434566445488	0.101666666667
4	7617	32.947899778824	0.310000000002
4	7651	33.164116004182	0.203333333334
4	7754	33.570938226404	0.203333333334
4	7791	33.575938226405	0.208333333335
4	7965	34.084527388983	0.211666666669
4	8032	34.279527388982	0.101666666667
4	8148	35.640784458192	0.101666666667
4	8275	35.84745112486	0.206666666668
4	8496	36.397830357222	0.311666666669
4	8518	36.496163690555	0.206666666668
4	8562	37.033839243664	0.203333333334
4	8620	37.440639243664	0.203466666666
4	8758	37.637002813889	0.105000000001
4	9003	37.853972577	0.210000000002
4	9098	37.95868233798	0.211666666669
4	9129	38.045336147224	0.310000000002
4	9183	38.121174441983	0.101666666667
4	9209	38.157015671313	0.105000000001
4	9257	38.324596664206	0.101755555556
4	9380	38.52792999754	0.101666666667
4	9527	41.146684253783	0.103333333334
4	9626	41.351684253784	0.105000000001
4	9697	41.8747665311	0.203333333334
4	9813	42.11800722785	0.211666666669
4	9896	42.319673894517	0.210000000002
4	10048	43.134157460185	0.203333333334
4	10111	43.239157460186	0.206666666668
4	10338	43.971542407139	0.311666666669
4	10360	44.069875740472	0.206666666668
4	10428	45.083985771484	0.203333333334
4	10525	45.382934038057	0.206666666668
4	10579	45.491400704724	0.204081599906
4	10706	45.691267371392	0.210000000002
4	10830	45.898067371392	0.203333333334
4	10843	45.966930537318	0.305000000001
4	10882	46.577297203986	0.305366666667
4	11116	47.042662586488	0.101666666667
4	11194	47.192297203989	0.310000000002
4	11233	48.08011987915	0.203333333334
4	11316	48.487053212484	0.203333333334
4	11353	48.492053212485	0.208333333335
4	11485	49.683768184725	0.101666666667
4	11602	49.890434851393	0.206666666668
4	11881	52.18628198387	0.206666666668
4	12101	52.360204519691	0.106666666668
4	12116	52.361871186358	0.207638233743
4	12215	52.46256628595	0.206666666668
4	12251	52.494615317205	0.210000000002
4	12525	53.14893939758	0.206666666668
4	12768	53.455606064248	0.310000000002
4	12828	53.534678676756	0.206666666668
4	12899	53.636345343423	0.105000000001
5	166	6.475771837227	0.111666666669
5	347	6.707567270411	0.211666666669
5	430	6.875771837227	0.206666666668
5	542	7.110900603745	0.208333333335
5	570	7.225351143561	0.203333333334
5	662	7.632017810229	0.203333333334
5	704	7.638684476897	0.210000000002
5	854	8.157055949944	0.105000000001
5	964	8.462055949945	0.206666666668
5	1137	9.666639199939	0.103333333334
5	1159	9.67163919994	0.210000000002
5	1213	9.998891654757	0.101666666667
5	1233	10.202236099202	0.101677777778
5	1377	10.413902765871	0.110000000002
5	1516	10.7147211885	0.206666666668
5	1586	10.923054521835	0.110000000002
5	1773	12.564002114214	0.211666666669
5	1859	12.762335447547	0.105000000001
5	1988	13.278012782123	0.105000000001
5	2080	13.483012782124	0.208333333335
5	2228	13.972840810387	0.205000000001
5	2276	14.076174143721	0.206666666668
5	2463	15.175638031528	0.208333333335
5	2544	15.380638031529	0.210000000002
5	2683	15.787658274858	0.206666666668
5	2763	15.995991608193	0.110000000002
5	2861	16.118276498234	0.105000000001
5	2994	16.421702979564	0.101666666667
5	3002	16.423369646231	0.206759814664
5	3062	16.62505853512	0.101666666667
5	3102	16.628391868454	0.105000000001
5	3321	17.879879144447	0.111666666669
5	3433	18.076545811113	0.105000000001
5	3571	18.425645401974	0.210000000002
5	3644	18.623978735307	0.103333333334
5	3905	20.153429582929	0.208333333335
5	3958	20.226614055922	0.211666666669
5	4082	20.360096249597	0.110000000002
5	4105	20.424947389255	0.206666666668
5	4303	21.33465306453	0.206666666668
5	4373	21.537986397864	0.206666666668
5	4528	22.562691090577	0.208333333335
5	4607	22.767691090578	0.210000000002
5	4624	22.861391390175	0.203333333334
5	4670	23.268146945731	0.203422222222
5	4851	23.680176333862	0.208333333335
5	4972	24.286909667196	0.206666666668
5	5050	24.495243000531	0.110000000002
5	5237	25.479330735782	0.211666666669
5	5333	25.682664069116	0.110000000002
5	5348	25.705874720288	0.203333333334
5	5481	26.039965507075	0.203333333334
5	5489	26.112630275844	0.203333333334
5	5527	26.117630275845	0.208333333335
5	5807	27.312072286405	0.206666666668
5	5853	27.374727525309	0.111666666669
5	6072	27.515405619739	0.206666666668
5	6106	27.569727525308	0.103333333334
5	6159	27.597967828412	0.105000000001
5	6181	27.606301161747	0.215000000003
5	6445	29.295365325842	0.211666666669
5	6595	29.424350295942	0.205000000001
5	6635	29.493698659175	0.206666666668
5	6675	29.529350295943	0.208333333335
5	6719	30.973555047962	0.101666666667
5	6758	31.176943936851	0.101666666667
5	6808	31.186943936853	0.111666666669
5	7088	31.988821569613	0.106666666668
5	7129	32.039117700242	0.105000000001
5	7263	32.195488236281	0.110000000002
5	7305	32.247451033577	0.110000000002
5	7484	32.537899778822	0.205000000001
5	7589	32.847899778824	0.210000000002
5	7784	33.574271559738	0.206666666668
5	7829	33.675938226405	0.105000000001
5	7931	33.984527388983	0.111666666669
5	8063	34.382860722316	0.205000000001
5	8222	35.744117791526	0.205000000001
5	8274	35.84745112486	0.206666666668
5	8439	36.297830357222	0.211666666669
5	8517	36.496163690555	0.206666666668
5	8572	37.12513614722	0.203333333334
5	8659	37.532002813888	0.203533333334
5	8722	37.547305910332	0.106666666668
5	8917	37.753972577	0.110000000002
5	9018	37.85868233798	0.111666666669
5	9053	37.945336147224	0.210000000002
5	9246	38.260349004647	0.208333333335
5	9347	38.429596664207	0.105000000001
5	9430	38.631263330874	0.205000000001
5	9468	40.839862031561	0.203333333334
5	9549	41.246684253783	0.203333333334
5	9581	41.250017587117	0.206666666668
5	9757	42.01800722785	0.111666666669
5	9860	42.219673894517	0.110000000002
5	10010	43.034157460185	0.103333333334
5	10110	43.239157460186	0.206666666668
5	10281	43.871542407139	0.211666666669
5	10359	44.069875740472	0.206666666668
5	10530	45.384600704724	0.208333333335
5	10635	45.591267371392	0.110000000002
5	10674	45.598067371392	0.106666666668
5	10799	45.798067371392	0.103333333334
5	10951	46.683963870654	0.106666666668
5	11040	46.926276470466	0.203333333334
5	11152	47.092297203989	0.210000000002
5	11176	47.145995919822	0.205000000001
5	11346	48.490386545818	0.206666666668
5	11387	48.592053212485	0.105000000001
5	11553	49.787101518059	0.205000000001
5	11601	49.890434851393	0.206666666668
5	11693	51.846671186355	0.203333333334
5	11886	52.187948650537	0.208333333335
5	11905	52.253537853023	0.203533333334
5	11973	52.257566285949	0.103333333334
5	12160	52.394615317205	0.110000000002
5	12214	52.46256628595	0.206666666668
5	12488	53.124478676754	0.203333333334
5	12531	53.150606064247	0.208333333335
5	12682	53.355606064248	0.210000000002
5	12796	53.531345343422	0.203333333334
5	12835	53.536345343423	0.208333333335
6	230	6.57410517056	0.210000000002
6	259	6.60256727041	0.106666666668
6	374	6.772438503893	0.103333333334
6	561	7.209233937078	0.306666666668
6	739	7.735351143563	0.103333333334
6	761	7.742017810231	0.313333333336
6	897	8.257055949944	0.205000000001
6	932	8.358722616611	0.103333333334
6	999	9.359972533271	0.101666666667
6	1049	9.563305866605	0.101666666667
6	1087	9.566639199939	0.105000000001
6	1313	10.305569432536	0.103333333334
6	1433	10.512236099204	0.208333333335
6	1513	10.713054521833	0.205000000001
6	1613	11.021387855168	0.208333333335
6	1730	12.459002114213	0.106666666668
6	1878	12.862335447547	0.205000000001
6	2025	13.378012782123	0.205000000001
6	2101	13.581346115457	0.306666666668
6	2226	13.972840810387	0.103333333334
6	2263	13.981174143722	0.213333333336
6	2400	15.072304698194	0.105000000001
6	2490	15.275638031528	0.105000000001
6	2680	15.785991608191	0.205000000001
6	2823	16.094324941526	0.208333333335
6	2919	16.218276498234	0.205000000001
6	2958	16.319943164901	0.103333333334
6	2962	16.320036312897	0.101666666667
6	3017	16.523391868453	0.101688888889
6	3140	16.728391868454	0.103333333334
6	3336	17.910578735305	0.305000000001
6	3386	17.97821247778	0.210000000002
6	3466	18.176545811113	0.205000000001
6	3582	18.520645401973	0.305000000001
6	3613	18.523978735307	0.308333333335
6	3830	20.050096249595	0.105000000001
6	3863	20.121614055921	0.106666666668
6	4022	20.321614055921	0.103333333334
6	4135	20.45842958293	0.208333333335
6	4245	21.231319731196	0.103333333334
6	4335	21.43465306453	0.103333333334
6	4472	22.459357757243	0.105000000001
6	4558	22.662691090577	0.105000000001
6	4721	23.371480279065	0.103333333334
6	4872	23.778509667195	0.306666666668
6	4969	24.285243000529	0.205000000001
6	5081	24.593576333864	0.208333333335
6	5190	25.374330735781	0.106666666668
6	5366	25.780997402449	0.208333333335
6	5460	26.014296942511	0.105000000001
6	5560	26.215963609178	0.103333333334
6	5646	27.05966085864	0.203333333334
6	5710	27.208738953071	0.103333333334
6	5911	27.412072286405	0.103333333334
6	5941	27.466394191974	0.203333333334
6	5983	27.473060858642	0.210000000002
6	6220	27.697967828412	0.205000000001
6	6237	27.706301161747	0.315000000003
6	6344	29.190365325841	0.106666666668
6	6535	29.390365325841	0.103333333334
6	6594	29.424350295942	0.205000000001
6	6697	29.627683629276	0.306666666668
6	6843	31.280277270185	0.103333333334
6	6873	31.286943936853	0.211666666669
6	6944	31.527339922463	0.203333333334
6	7029	31.934117700241	0.203444444444
6	7173	32.088821569613	0.206666666668
6	7332	32.293821569614	0.208333333335
6	7394	32.34578436691	0.208333333335
6	7490	32.539566445489	0.206666666668
6	7546	32.742899778823	0.105000000001
6	7719	33.470938226404	0.103333333334
6	7858	33.775938226405	0.205000000001
6	7962	34.082860722316	0.210000000002
6	8062	34.382860722316	0.205000000001
6	8220	35.744117791526	0.103333333334
6	8257	35.752451124861	0.213333333336
6	8322	36.081603678608	0.101666666667
6	8370	36.192830357221	0.106666666668
6	8468	36.392830357221	0.103333333334
6	8757	37.637002813889	0.105000000001
6	8805	37.647305910332	0.206666666668
6	8946	37.840336147223	0.105000000001
6	8996	37.852305910333	0.208333333335
6	9095	37.957015671313	0.210000000002
6	9294	38.35868233798	0.306666666668
6	9392	38.529596664207	0.205000000001
6	9429	38.631263330874	0.205000000001
6	9576	41.24835092045	0.205000000001
6	9618	41.350017587117	0.103333333334
6	9809	42.116340561183	0.210000000002
6	9893	42.31800722785	0.208333333335
6	9929	42.727401904628	0.101666666667
6	9941	42.930824126851	0.101755555556
6	10057	43.135824126852	0.103333333334
6	10212	43.766542407138	0.106666666668
6	10310	43.966542407138	0.103333333334
6	10488	45.28126737139	0.105000000001
6	10508	45.287319104818	0.203333333334
6	10703	45.689600704725	0.208333333335
6	10712	45.694734038058	0.203333333334
6	10762	45.701400704726	0.210000000002
6	10987	46.783963870654	0.206666666668
6	11081	46.987297203988	0.105000000001
6	11175	47.145995919822	0.205000000001
6	11287	48.387053212484	0.103333333334
6	11412	48.692053212485	0.205000000001
6	11551	49.787101518059	0.103333333334
6	11588	49.795434851394	0.213333333336
6	11721	51.950755174837	0.101666666667
6	11803	52.084615317203	0.105000000001
6	11835	52.154232952615	0.101811111111
6	12067	52.356871186357	0.103333333334
6	12092	52.359232952616	0.103333333334
6	12247	52.492948650538	0.208333333335
6	12451	53.047272730913	0.105000000001
6	12579	53.250606064247	0.105000000001
6	12733	53.433012010089	0.105000000001
6	12853	53.555550456945	0.203333333334
6	12891	53.634678676756	0.103333333334
7	236	6.579105170561	0.215000000003
7	412	6.810900603745	0.315000000003
7	482	6.979105170561	0.310000000002
7	564	7.214233937079	0.311666666669
7	731	7.733684476896	0.101666666667
7	762	7.742017810231	0.313333333336
7	910	8.260389283278	0.208333333335
7	979	8.565389283279	0.310000000002
7	1184	9.769972533273	0.206666666668
7	1190	9.774972533274	0.313333333336
7	1256	10.203054521831	0.305000000001
7	1281	10.303902765869	0.101666666667
7	1443	10.517236099205	0.213333333336
7	1529	10.813054521833	0.305000000001
7	1554	10.818054521834	0.310000000002
7	1830	12.667335447548	0.315000000003
7	1885	12.865668780881	0.208333333335
7	2044	13.381346115457	0.208333333335
7	2104	13.586346115458	0.311666666669
7	2278	14.076174143721	0.308333333335
7	2298	14.179507477055	0.310000000002
7	2493	15.275958274856	0.305000000001
7	2506	15.278971364862	0.311666666669
7	2580	15.483971364863	0.313333333336
7	2702	15.885991608191	0.305000000001
7	2727	15.890991608192	0.310000000002
7	2936	16.221609831568	0.208333333335
7	3044	16.526702979565	0.310093147998
7	3129	16.726725201787	0.101666666667
7	3159	16.731725201788	0.208333333335
7	3393	17.983212477781	0.215000000003
7	3473	18.179879144447	0.208333333335
7	3619	18.528978735308	0.313333333336
7	3670	18.727312068641	0.206666666668
7	4001	20.256762916263	0.311666666669
7	4056	20.329947389256	0.315000000003
7	4141	20.463429582931	0.213333333336
7	4156	20.528280722589	0.310000000002
7	4353	21.437986397864	0.310000000002
7	4388	21.641319731198	0.310000000002
7	4568	22.666024423911	0.311666666669
7	4640	22.871024423912	0.313333333336
7	4712	23.369813612398	0.101666666667
7	4862	23.775176333861	0.305000000001
7	4875	23.783509667196	0.311666666669
7	4989	24.385243000529	0.305000000001
7	5014	24.39024300053	0.310000000002
7	5297	25.582664069116	0.315000000003
7	5372	25.78599740245	0.213333333336
7	5552	26.214296942511	0.101666666667
7	5576	26.220963609179	0.311666666669
7	5626	26.856327525306	0.203333333334
7	5737	27.26306085864	0.2034
7	5929	27.415405619739	0.310000000002
7	6192	27.618738953073	0.310000000002
7	6208	27.673060858642	0.206666666668
7	6227	27.701301161746	0.208333333335
7	6240	27.709634495081	0.318333333337
7	6569	29.398698659176	0.315000000003
7	6670	29.527683629276	0.308333333335
7	6687	29.597031992509	0.310000000002
7	6700	29.632683629277	0.311666666669
7	6713	30.871888381295	0.101666666667
7	6725	31.075277270184	0.101722222222
7	6835	31.278610603518	0.101666666667
7	6974	31.730673255797	0.203333333334
7	7179	32.092154902947	0.210000000002
7	7196	32.137451033575	0.203333333334
7	7228	32.142451033576	0.208333333335
7	7338	32.298821569615	0.213333333336
7	7525	32.641233112156	0.308333333335
7	7620	32.951233112158	0.313333333336
7	7657	33.262660722314	0.305000000001
7	7837	33.677604893072	0.310000000002
7	7865	33.779271559739	0.208333333335
7	7871	33.872860722314	0.305199999999
7	8077	34.48619405565	0.308333333335
7	8276	35.84745112486	0.308333333335
7	8306	35.950784458194	0.310000000002
7	8500	36.401163690556	0.315000000003
7	8532	36.599497023889	0.310000000002
7	8581	37.136782337978	0.305000000001
7	8741	37.633669480555	0.101666666667
7	8811	37.650639243666	0.210000000002
7	8868	37.747015671311	0.305233333332
7	9014	37.857305910334	0.213333333336
7	9132	38.048669480558	0.313333333336
7	9297	38.363682337981	0.311666666669
7	9413	38.532929997541	0.208333333335
7	9444	38.734596664208	0.308333333335
7	9610	41.34835092045	0.101666666667
7	9633	41.353350920451	0.310000000002
7	9683	41.702829450069	0.203333333334
7	9772	42.109673894515	0.203333333334
7	9818	42.121340561184	0.215000000003
7	10067	43.137490793519	0.206666666668
7	10140	43.34249079352	0.310000000002
7	10342	43.974875740473	0.315000000003
7	10374	44.173209073806	0.310000000002
7	10571	45.487934038058	0.311666666669
7	10709	45.694600704726	0.213333333336
7	10763	45.701400704726	0.210000000002
7	10837	45.901400704726	0.206666666668
7	10991	46.787297203988	0.210000000002
7	11197	47.195630537323	0.313333333336
7	11206	47.249329253156	0.308333333335
7	11395	48.593719879152	0.310000000002
7	11419	48.695386545819	0.208333333335
7	11603	49.890434851393	0.308333333335
7	11623	49.993768184727	0.310000000002
7	11662	51.674315317201	0.305000000001
7	12003	52.284615317203	0.305000000001
7	12028	52.291281983871	0.311666666669
7	12058	52.35520451969	0.101666666667
7	12112	52.360899619283	0.206666666668
7	12281	52.565899619284	0.310000000002
7	12590	53.253939397581	0.311666666669
7	12771	53.458939397582	0.313333333336
7	12882	53.633012010089	0.101666666667
7	12907	53.639678676757	0.311666666669
8	319	6.67410517056	0.310000000002
8	375	6.772438503893	0.103333333334
8	406	6.804233937077	0.308333333335
8	491	7.004233937077	0.101666666667
8	623	7.530351143562	0.101666666667
8	778	7.83701781023	0.205000000001
8	846	8.155389283277	0.103333333334
8	933	8.358722616611	0.103333333334
8	1044	9.556994850714	0.101666666667
8	1079	9.564972533272	0.103333333334
8	1181	9.768305866606	0.205000000001
8	1206	9.89805452183	0.305000000001
8	1354	10.407236099203	0.205000000001
8	1395	10.508054521832	0.305000000001
8	1480	10.612236099204	0.308333333335
8	1636	11.121387855168	0.308333333335
8	1820	12.66066878088	0.308333333335
8	1842	12.759002114213	0.101666666667
8	1949	13.274679448789	0.101666666667
8	2012	13.376346115456	0.101666666667
8	2091	13.564496365941	0.101666666667
8	2119	13.767840810386	0.101677777778
8	2227	13.972840810387	0.103333333334
8	2371	14.970958274855	0.305000000001
8	2394	15.070638031527	0.103333333334
8	2570	15.477304698195	0.306666666668
8	2593	15.58099160819	0.305033333334
8	2853	16.116609831567	0.103333333334
8	2883	16.194324941526	0.308333333335
8	2959	16.319943164901	0.103333333334
8	3142	16.728391868454	0.205000000001
8	3175	16.830058535121	0.205000000001
8	3342	17.963307508167	0.305000000001
8	3414	18.073212477779	0.101666666667
8	3442	18.07821247778	0.310000000002
8	3518	18.317312068639	0.101666666667
8	3667	18.725645401974	0.205000000001
8	3824	20.048429582928	0.103333333334
8	4023	20.321614055921	0.103333333334
8	4053	20.328280722589	0.313333333336
8	4168	20.55842958293	0.308333333335
8	4251	21.232986397863	0.105000000001
8	4336	21.43465306453	0.103333333334
8	4466	22.457691090576	0.103333333334
8	4634	22.864357757244	0.306666666668
8	4744	23.47017633386	0.305000000001
8	4784	23.475176333861	0.20702938813
8	4802	23.573509667194	0.101666666667
8	4892	24.080243000528	0.305066666667
8	5110	24.693576333864	0.308333333335
8	5287	25.575997402448	0.308333333335
8	5397	25.880997402449	0.308333333335
8	5454	26.012630275844	0.103333333334
8	5582	26.243298840409	0.203333333334
8	5591	26.317630275845	0.205000000001
8	5716	27.210405619738	0.105000000001
8	5912	27.412072286405	0.103333333334
8	6003	27.492967828411	0.101666666667
8	6124	27.573060858642	0.310000000002
8	6140	27.594634495078	0.101666666667
8	6205	27.671394191975	0.205000000001
8	6287	29.015950295941	0.101666666667
8	6371	29.219350295941	0.101733333333
8	6536	29.390365325841	0.103333333334
8	6566	29.397031992509	0.313333333336
8	6581	29.422683629275	0.101666666667
8	6902	31.381943936852	0.205000000001
8	6917	31.386943936853	0.311666666669
8	6968	31.722666445488	0.305000000001
8	7068	31.983821569612	0.101666666667
8	7223	32.139117700242	0.205000000001
8	7349	32.332899778821	0.305233333332
8	7417	32.393821569614	0.308333333335
8	7468	32.44578436691	0.308333333335
8	7614	32.94456644549	0.306666666668
8	7725	33.472604893071	0.105000000001
8	7746	33.567660722315	0.305000000001
8	7815	33.672604893071	0.101666666667
8	7979	34.177860722315	0.305000000001
8	8014	34.182860722316	0.310000000002
8	8087	35.335706680414	0.101666666667
8	8103	35.539117791525	0.101744444444
8	8221	35.744117791526	0.103333333334
8	8469	36.392830357221	0.103333333334
8	8480	36.394497023888	0.308333333335
8	8698	37.542305910331	0.101666666667
8	8850	37.737002813889	0.205000000001
8	9083	37.952305910333	0.308333333335
8	9126	38.04200281389	0.306666666668
8	9171	38.057015671313	0.310000000002
8	9195	38.153682337979	0.101666666667
8	9226	38.22284110865	0.101666666667
8	9307	38.426263330873	0.101666666667
8	9337	38.42792999754	0.103333333334
8	9458	40.636528698227	0.203333333334
8	9478	41.043350920449	0.203488888888
8	9650	41.451684253784	0.205000000001
8	9852	42.216340561183	0.310000000002
8	9916	42.41800722785	0.308333333335
8	10058	43.135824126852	0.103333333334
8	10091	43.14249079352	0.211666666669
8	10311	43.966542407138	0.103333333334
8	10322	43.968209073805	0.308333333335
8	10482	45.279600704723	0.103333333334
8	10647	45.593067371391	0.101666666667
8	10779	45.789600704725	0.308333333335
8	10834	45.899734038059	0.205000000001
8	10931	46.678963870653	0.101666666667
8	10968	46.737551475376	0.101666666667
8	11043	46.940995919821	0.101666666667
8	11191	47.188963870655	0.306666666668
8	11293	48.388719879151	0.105000000001
8	11373	48.588719879151	0.101666666667
8	11432	49.378668184724	0.101666666667
8	11444	49.582101518058	0.101766666667
8	11552	49.787101518059	0.103333333334
8	11796	52.082948650536	0.103333333334
8	12093	52.359232952616	0.103333333334
8	12094	52.359232952616	0.205000000001
8	12202	52.460204519691	0.206666666668
8	12296	52.592948650538	0.308333333335
8	12445	53.045606064246	0.103333333334
8	12727	53.431345343422	0.103333333334
8	12760	53.452272730914	0.306666666668
8	12949	53.736345343423	0.205000000001
8	12960	53.758883790279	0.203333333334
9	325	6.682438503895	0.318333333337
9	358	6.712567270412	0.21666666667
9	437	6.877438503894	0.208333333335
9	535	7.107567270411	0.205000000001
9	690	7.633684476896	0.205000000001
9	781	7.838684476897	0.206666666668
9	790	7.848722616609	0.203333333334
9	872	8.255389283277	0.203333333334
9	902	8.258722616611	0.206666666668
9	1146	9.668305866606	0.105000000001
9	1155	9.669972533273	0.208333333335
9	1362	10.40890276587	0.206666666668
9	1487	10.613054521833	0.105000000001
9	1499	10.620569432539	0.31666666667
9	1639	11.129721188503	0.31666666667
9	1784	12.569002114215	0.21666666667
9	1879	12.862335447547	0.205000000001
9	2026	13.378012782123	0.205000000001
9	2073	13.47967944879	0.205000000001
9	2110	13.666163032608	0.101666666667
9	2158	13.869507477053	0.101666666667
9	2204	13.874507477054	0.106666666668
9	2464	15.175638031528	0.208333333335
9	2556	15.38563803153	0.215000000003
9	2656	15.685991608191	0.105000000001
9	2886	16.202658274861	0.31666666667
9	2927	16.219943164901	0.206666666668
9	3006	16.424943164902	0.208333333335
9	3103	16.628391868454	0.105000000001
9	3178	16.831725201788	0.206666666668
9	3450	18.086545811115	0.318333333337
9	3467	18.176545811113	0.205000000001
9	3560	18.420645401973	0.205000000001
9	3651	18.625645401974	0.105000000001
9	3733	19.811569611475	0.203333333334
9	3906	20.153429582929	0.208333333335
9	3917	20.218280722587	0.203333333334
9	3970	20.231614055923	0.21666666667
9	4171	20.566762916265	0.31666666667
9	4181	20.721208620084	0.203333333334
9	4201	21.127986397862	0.203444444444
9	4380	21.539653064531	0.208333333335
9	4402	21.947602201686	0.203333333334
9	4422	22.354357757242	0.203422222222
9	4618	22.772691090579	0.215000000003
9	4779	23.474813612399	0.206666666668
9	4844	23.676843000528	0.205000000001
9	4949	24.185243000529	0.105000000001
9	5113	24.701909667199	0.31666666667
9	5248	25.484330735783	0.21666666667
9	5400	25.889330735784	0.31666666667
9	5528	26.117630275845	0.208333333335
9	5594	26.319296942512	0.206666666668
9	5612	26.698583397515	0.203333333334
9	5656	27.105405619737	0.203488888888
9	6079	27.517072286406	0.208333333335
9	6115	27.571394191975	0.105000000001
9	6128	27.581394191977	0.318333333337
9	6150	27.596301161745	0.205000000001
9	6221	27.697967828412	0.205000000001
9	6273	28.880231992507	0.203333333334
9	6404	29.287031992507	0.203333333334
9	6457	29.300365325843	0.21666666667
9	6511	29.324350295942	0.105000000001
9	6663	29.526016962609	0.205000000001
9	6905	31.383610603519	0.206666666668
9	6920	31.393610603521	0.318333333337
9	7130	32.039117700242	0.105000000001
9	7166	32.087154902946	0.205000000001
9	7420	32.402154902949	0.31666666667
9	7457	32.439566445489	0.106666666668
9	7471	32.454117700245	0.31666666667
9	7600	32.852899778825	0.215000000003
9	7799	33.577604893072	0.210000000002
9	7859	33.775938226405	0.205000000001
9	8018	34.191194055651	0.318333333337
9	8047	34.282860722316	0.105000000001
9	8093	35.437373347081	0.101666666667
9	8146	35.640784458192	0.101666666667
9	8192	35.645784458193	0.106666666668
9	8450	36.302830357223	0.21666666667
9	8524	36.497830357222	0.208333333335
9	8797	37.645639243665	0.205000000001
9	8855	37.740336147223	0.208333333335
9	9067	37.950336147225	0.215000000003
9	9101	37.960639243668	0.31666666667
9	9177	38.065349004648	0.318333333337
9	9239	38.257015671313	0.205000000001
9	9399	38.531263330874	0.105000000001
9	9410	38.532929997541	0.208333333335
9	9535	41.14835092045	0.105000000001
9	9653	41.453350920451	0.206666666668
9	9874	42.224673894518	0.318333333337
9	9919	42.426340561185	0.31666666667
9	9935	42.829068571295	0.101666666667
9	9980	43.032490793518	0.101666666667
9	10026	43.037490793519	0.106666666668
9	10292	43.87654240714	0.21666666667
9	10366	44.071542407139	0.208333333335
9	10531	45.384600704724	0.208333333335
9	10740	45.696400704725	0.205000000001
9	10807	45.799734038059	0.105000000001
9	10817	45.801400704726	0.320133333336
9	10981	46.782297203987	0.205000000001
9	11131	47.045995919822	0.105000000001
9	11163	47.09729720399	0.215000000003
9	11361	48.493719879152	0.210000000002
9	11413	48.692053212485	0.205000000001
9	11438	49.480334851391	0.101666666667
9	11483	49.683768184725	0.101666666667
9	11529	49.688768184726	0.106666666668
9	11641	51.3693153172	0.305000000001
9	11730	51.979615317202	0.305300000001
9	11983	52.259232952616	0.105000000001
9	12203	52.460204519691	0.206666666668
9	12224	52.464232952617	0.208333333335
9	12300	52.601281983873	0.31666666667
9	12374	52.92114534342	0.203333333334
9	12532	53.150606064247	0.208333333335
9	12630	53.328012010088	0.203533333334
9	12693	53.360606064249	0.215000000003
9	12952	53.73801201009	0.206666666668

