version 2
run General-0-20190408-14:47:43-23572
attr configname General
attr datetime 20190408-14:47:43
attr experiment General
attr inifile omnetpp.ini
attr iterationvars ""
attr iterationvarsf ""
attr measurement ""
attr network networks.Net5
attr processid 23572
attr repetition 0
attr replication #0
attr resultdir results
attr runnumber 0
attr seedset 0
param **.appType "\"App\""
param **.app.packetLength "4096 bytes"
param **.destAddresses "\"0 4 5\""
param **.sendIaTime "uniform(1000ms, 1500ms)"

vector 0 Net5.rte[0].app endToEndDelay:vector ETV
attr interpolationmode none
attr title "end-to-end delay of arrived packets, vector"
attr unit s
vector 1 Net5.rte[5].app endToEndDelay:vector ETV
attr interpolationmode none
attr title "end-to-end delay of arrived packets, vector"
attr unit s
vector 2 Net5.rte[4].app endToEndDelay:vector ETV
attr interpolationmode none
attr title "end-to-end delay of arrived packets, vector"
attr unit s
0	36	2.330527357287	0.930948075368
0	110	3.74428607769	2.34383070144
0	138	4.293240882979	1.584102403662
0	143	4.406785575318	3.016520987492
0	159	4.792845922135	1.253966059148
0	168	4.842195688268	3.581956948024
0	202	5.725534545509	1.992978968909
0	222	6.156831323413	2.34383070144
0	253	6.80096467805	3.016520987492
0	258	6.980246560489	3.538089838768
0	279	7.479547884686	2.357819567223
0	301	8.256110766106	1.992978968909
0	351	9.677281805682	1.992978968909
0	387	10.95450171242	3.538089838768
0	390	10.962091007871	1.992978968909
0	437	12.368971726582	3.538089838768
0	478	13.65509767733	3.538089838768
0	481	13.663695517015	1.992978968909
0	515	14.811706843394	3.538089838768
0	594	17.325048731714	3.538089838768
0	643	18.64999277682	1.992978968909
0	687	20.174315547295	3.538089838768
0	716	20.957581380284	1.992978968909
0	727	21.434833848806	3.538089838768
0	794	23.829643392427	3.538089838768
0	835	24.860489374278	1.992978968909
0	876	26.154647932988	1.992978968909
0	892	26.39539429937	3.538089838768
0	930	27.510003960882	3.538089838768
0	936	27.594796735229	1.992978968909
0	969	28.61775779976	3.538089838768
0	1011	29.804842789033	3.538089838768
0	1098	32.439368864712	3.538089838768
0	1167	34.816854463327	1.992978968909
0	1199	35.885304600369	1.992978968909
0	1225	36.733789062668	3.538089838768
0	1242	37.316400357425	1.992978968909
0	1259	37.934355233405	3.538089838768
0	1289	38.679197541457	1.992978968909
0	1305	39.137975817272	3.538089838768
0	1333	39.975165123372	1.992978968909
0	1347	40.354049841133	3.538089838768
0	1374	41.003589159828	1.992978968909
0	1391	41.598017126862	3.538089838768
0	1432	42.938696693587	3.538089838768
0	1446	43.307966487385	1.992978968909
0	1551	46.891079007024	3.538089838768
0	1593	48.011089143883	3.538089838768
0	1605	48.275625696309	1.992978968909
0	1634	49.089905279413	3.538089838768
0	1645	49.541550287298	1.992978968909
0	1653	50.10655759259	3.538089838768
0	1691	51.374694861312	3.538089838768
0	1799	55.05034628611	3.538089838768
0	1816	55.520296431283	1.992978968909
0	1864	57.004782283117	1.992978968909
0	1903	58.370136834469	1.992978968909
0	1913	58.696391274412	3.538089838768
0	1948	59.739332003307	1.992978968909
0	1953	59.83260972328	3.538089838768
0	1989	61.093290734126	1.992978968909
0	2028	62.450835763435	3.538089838768
0	2034	62.577188070419	1.992978968909
0	2108	65.028933801181	3.538089838768
0	2141	66.04219507678	3.538089838768
0	2180	67.299441775212	1.992978968909
0	2215	68.610557305881	1.992978968909
0	2250	69.814434502814	3.538089838768
0	2256	69.904927110787	1.992978968909
0	2299	71.300347192468	1.992978968909
0	2340	72.743827582825	1.992978968909
0	2409	74.828283645986	3.538089838768
0	2442	75.915669649681	3.538089838768
0	2465	76.216894844221	1.992978968909
0	2503	77.706658307253	1.992978968909
0	2565	79.693563137278	3.538089838768
0	2651	82.318348032562	1.992978968909
0	2669	82.986537288251	3.538089838768
0	2689	83.366977032064	1.992978968909
0	2719	84.18643813355	3.538089838768
0	2729	84.39624449322	1.992978968909
0	2931	91.194005623483	1.992978968909
0	2947	91.719365724787	3.538089838768
0	2966	92.410497726314	1.992978968909
0	3032	94.836132940045	1.992978968909
0	3057	95.634602602646	3.538089838768
0	3098	96.896792505477	3.538089838768
0	3148	98.150610278203	3.538089838768
0	3167	98.933786593401	1.992978968909
0	3215	100.488090493559	3.538089838768
0	3248	101.538869283767	1.992978968909
0	3294	102.858721834281	1.992978968909
0	3324	103.777872245602	3.538089838768
0	3338	104.169554553832	1.992978968909
0	3370	105.132389974856	3.538089838768
0	3373	105.241900126821	1.992978968909
0	3416	106.643346813413	1.992978968909
0	3518	110.341894195205	1.992978968909
0	3578	112.513463421684	3.538089838768
0	3596	113.032889269315	1.992978968909
0	3648	114.890918986482	3.538089838768
0	3671	115.670936359465	1.992978968909
0	3690	116.372789481498	3.538089838768
0	3708	116.845032330626	1.992978968909
0	3725	117.599153909908	3.538089838768
0	3730	117.927276535682	1.992978968909
0	3771	119.399751129351	1.992978968909
0	3902	124.035557585559	1.992978968909
0	3987	126.600160712632	1.992978968909
0	4031	128.061309965467	1.992978968909
0	4076	129.429736546613	1.992978968909
0	4079	129.673849823612	3.538089838768
0	4115	130.716782493773	1.992978968909
0	4121	130.931310926408	3.538089838768
0	4251	134.723158715602	3.538089838768
0	4254	134.841552866181	1.992978968909
0	4403	139.4031913939	3.538089838768
0	4414	139.888234246896	1.992978968909
0	4455	141.350654155273	1.992978968909
0	4523	143.295479518903	3.538089838768
0	4619	146.288541609679	1.992978968909
0	4756	150.89728135821	3.538089838768
0	4837	153.87249097603	1.992978968909
0	4952	157.962836995098	3.538089838768
0	4956	158.088445000142	1.992978968909
0	4992	159.106235901035	1.992978968909
0	5001	159.459170491161	3.538089838768
0	5039	160.637990005972	3.538089838768
0	5078	161.869281374809	3.538089838768
0	5211	165.83217010026	3.538089838768
0	5231	166.84284944188	3.538089838768
0	5268	168.018042951898	3.538089838768
0	5301	169.365407004562	3.538089838768
0	5448	174.466410766148	1.992978968909
0	5487	175.591841329896	3.538089838768
0	5497	175.829068882183	1.992978968909
0	5535	177.159054156883	1.992978968909
0	5578	178.399264869654	1.992978968909
0	5616	179.740684922744	3.538089838768
0	5741	184.50894255636	1.992978968909
0	5780	185.97652281346	1.992978968909
0	5817	187.114371916355	3.538089838768
0	5861	188.500187980669	3.538089838768
0	5904	189.788516343298	3.538089838768
0	5952	191.143411966532	1.992978968909
0	5981	192.010519974475	3.538089838768
0	6026	193.369579494424	3.538089838768
0	6075	195.015122147303	1.992978968909
0	6114	196.284572590218	3.538089838768
0	6117	196.372933249365	1.992978968909
0	6154	197.587122505441	1.992978968909
0	6196	198.836339898434	1.992978968909
0	6234	200.080239532426	1.992978968909
0	6272	201.397061158697	1.992978968909
0	6311	202.534279442468	3.538089838768
0	6351	203.771721880609	3.538089838768
0	6404	205.141844377463	3.538089838768
0	6438	206.158977897564	3.538089838768
0	6513	208.428805774803	1.992978968909
0	6521	208.724503350985	3.538089838768
0	6557	209.726967914222	3.538089838768
0	6567	209.866651910035	1.992978968909
0	6744	216.141128202044	3.538089838768
0	6789	217.604141454869	3.538089838768
0	6842	219.072245299378	1.992978968909
0	6869	219.967093468485	3.538089838768
0	7054	226.465639829082	1.992978968909
0	7059	226.752945043569	3.538089838768
0	7093	227.815956499456	1.992978968909
0	7097	228.147179237873	3.538089838768
0	7134	229.385579918934	3.538089838768
0	7198	231.987302648676	3.538089838768
0	7386	238.603889550156	3.538089838768
0	7437	240.380470227712	1.992978968909
0	7458	241.024952658176	3.538089838768
0	7490	242.07157965524	3.538089838768
0	7544	243.994595015683	1.992978968909
0	7570	244.570350232724	3.538089838768
0	7627	246.439088708866	1.992978968909
0	7645	246.777693591271	3.538089838768
0	7667	247.654000422829	1.992978968909
0	7704	248.658624418574	1.992978968909
0	7765	250.908563571894	1.992978968909
0	7837	253.613020085991	1.992978968909
0	7865	254.622520127524	3.538089838768
0	7868	254.688763087295	1.992978968909
0	7950	257.512187793996	1.992978968909
0	7980	258.586667118157	1.992978968909
0	8017	259.690607699989	3.538089838768
0	8029	260.049737808556	1.992978968909
0	8067	261.293209896684	1.992978968909
0	8105	262.468310874915	1.992978968909
0	8132	263.308951072004	3.538089838768
0	8179	264.80072877971	3.538089838768
0	8192	265.190343485242	1.992978968909
0	8251	267.186621452756	3.538089838768
0	8269	267.880308689927	1.992978968909
0	8285	268.282277731532	3.538089838768
0	8378	271.85958280608	3.538089838768
0	8389	272.171154376613	1.992978968909
0	8412	273.167348755365	3.538089838768
0	8481	275.409327924396	1.992978968909
0	8569	278.071314013638	3.538089838768
0	8651	280.409414316603	3.538089838768
0	8659	280.626831478234	1.992978968909
0	8747	282.990140663884	3.538089838768
0	8787	284.122462106896	1.992978968909
0	8817	285.1777603244	3.538089838768
0	8827	285.449927295586	1.992978968909
0	8857	286.369358370971	3.538089838768
0	8874	286.928682196331	1.992978968909
0	8905	287.659703021479	3.538089838768
0	8946	289.06033973124	3.538089838768
0	9040	291.929015252698	3.538089838768
0	9043	292.001542746931	1.992978968909
0	9082	293.491395564078	1.992978968909
0	9124	294.950755586991	1.992978968909
0	9206	297.557470647111	3.538089838768
0	9228	298.412575092543	1.992978968909
0	9282	299.892074766596	1.992978968909
0	9291	299.92371605705	3.538089838768
0	9322	300.91493891939	1.992978968909
0	9331	300.996257502777	3.538089838768
0	9370	302.248814224108	3.538089838768
0	9401	303.309373470331	3.538089838768
0	9429	304.326035240973	3.538089838768
0	9468	305.790959287976	3.538089838768
0	9498	306.953095724649	3.538089838768
0	9580	309.446161021739	1.992978968909
0	9619	310.71254024243	3.538089838768
0	9624	310.853969815098	1.992978968909
0	9665	311.985704703448	3.538089838768
0	9676	312.269424216151	1.992978968909
0	9707	313.20362531052	3.538089838768
0	9710	313.284431703533	1.992978968909
0	9739	314.287186924163	1.992978968909
0	9744	314.604515524889	3.538089838768
0	9825	317.134517591173	3.538089838768
0	9863	318.228122047176	1.992978968909
0	9906	319.666931233978	1.992978968909
0	9978	322.073291407624	3.538089838768
0	9981	322.079393607824	1.992978968909
0	10019	323.28312599911	3.538089838768
0	10064	324.409132258644	1.992978968909
0	10067	324.455760921776	3.538089838768
0	10223	329.291381829445	1.992978968909
0	10263	330.720620612059	1.992978968909
0	10313	332.208757309736	1.992978968909
0	10386	334.394446984358	3.538089838768
0	10445	335.997728567598	1.992978968909
0	10471	336.870172089157	3.538089838768
0	10517	338.130483185016	3.538089838768
0	10531	338.408488898915	1.992978968909
0	10564	339.357935319962	3.538089838768
0	10571	339.437577098636	1.992978968909
0	10592	340.366014728514	3.538089838768
0	10670	342.784659659681	3.538089838768
0	10673	342.840467710657	1.992978968909
0	10764	345.398718057577	1.992978968909
0	10791	346.411867126315	3.538089838768
0	10845	347.879220416029	3.538089838768
0	10852	348.030766202397	1.992978968909
0	10894	349.522137843915	1.992978968909
0	10909	349.924895654973	3.538089838768
0	10982	352.084594674204	1.992978968909
0	10993	352.44981859853	3.538089838768
0	11036	353.682279685004	3.538089838768
0	11133	356.759515438606	1.992978968909
0	11201	359.122183525148	1.992978968909
0	11236	360.14490634392	1.992978968909
0	11275	361.386600267332	3.538089838768
0	11302	362.388200967297	3.538089838768
0	11311	362.499147490859	1.992978968909
0	11345	363.53699365219	3.538089838768
0	11364	363.895777141587	1.992978968909
0	11393	364.812778632114	3.538089838768
0	11437	366.091879103174	3.538089838768
0	11458	366.510230504703	1.992978968909
0	11511	368.319486892623	3.538089838768
0	11544	369.281722340877	1.992978968909
0	11548	369.325182920978	3.538089838768
0	11586	370.462493973975	3.538089838768
0	11593	370.623073857189	1.992978968909
0	11618	371.481009108089	3.538089838768
0	11654	372.54130935234	3.538089838768
0	11724	374.608492307626	1.992978968909
0	11753	375.266467241179	3.538089838768
0	11765	375.642642580117	1.992978968909
0	11810	377.281876115785	3.538089838768
0	11840	377.910995645709	1.992978968909
0	11854	378.504122976754	3.538089838768
0	11965	381.666759140818	1.992978968909
0	11984	382.138543455354	3.538089838768
0	12024	383.303925951901	3.538089838768
0	12036	383.737166730134	1.992978968909
0	12057	384.367292791098	3.538089838768
0	12087	385.20801026668	1.992978968909
0	12207	388.998928310495	1.992978968909
0	12211	389.155714608106	3.538089838768
0	12248	390.337565972429	3.538089838768
0	12251	390.342548181448	1.992978968909
0	12300	391.779917837778	3.538089838768
0	12380	394.320378587261	1.992978968909
0	12420	395.63628600522	3.538089838768
0	12523	399.139200570439	1.992978968909
0	12563	400.403242925326	1.992978968909
0	12587	401.185771540116	3.538089838768
0	12619	402.321969440166	3.538089838768
0	12639	402.889420873513	1.992978968909
0	12671	403.94313313221	1.992978968909
0	12694	404.835796683986	3.538089838768
0	12699	404.983470062985	1.992978968909
0	12741	406.156510727507	1.992978968909
0	12744	406.211749699508	3.538089838768
0	12871	411.275659772362	1.992978968909
0	12882	411.580719934735	3.538089838768
0	12946	414.337282671668	3.538089838768
0	12962	414.787128870285	1.992978968909
0	12983	415.709519451559	3.538089838768
0	13019	416.999364606529	3.538089838768
0	13081	419.182908419129	3.538089838768
0	13123	420.63840009268	3.538089838768
0	13161	421.740633458557	3.538089838768
0	13271	425.241507105022	3.538089838768
0	13309	426.46838463245	3.538089838768
0	13321	426.713405847343	1.992978968909
0	13346	427.769795401097	3.538089838768
0	13382	429.035611117518	1.992978968909
0	13419	430.196168346173	3.538089838768
0	13422	430.277497890898	1.992978968909
1	81	3.381024033685	2.150284352286
1	155	4.700984542181	2.150284352286
1	234	6.436254537734	1.204281462426
1	243	6.584536874321	1.389596568308
1	295	7.95407858294	5.285015460462
1	344	9.524373676194	7.049956962381
1	377	10.199755506037	6.204297224088
1	432	12.342959080513	2.150284352286
1	466	13.018340910356	6.273028869334
1	510	14.553998153927	6.676321030747
1	531	15.22937998377	2.249655722209
1	580	16.753971344256	6.583337529026
1	616	17.782004103802	2.150284352286
1	650	18.953944534585	7.48907817766
1	676	19.816559057256	2.150284352286
1	744	21.845938465102	5.285015460462
1	760	22.547027484902	2.150284352286
1	808	24.045911655431	6.479131610035
1	879	26.24588484576	5.724800042021
1	956	28.445858036089	5.50114871996
1	988	29.121239865932	2.460656170885
1	1023	30.171908377709	2.150284352286
1	1047	30.847290207552	5.809735244642
1	1071	31.522672037395	2.380633623373
1	1088	32.324300399206	2.150284352286
1	1123	33.551884807802	2.150284352286
1	1177	35.281064992314	5.285015460462
1	1318	39.425716879205	5.285015460462
1	1395	41.625690069534	6.031710901782
1	1414	42.301071899377	2.223729103121
1	1474	44.398388413721	5.285015460462
1	1523	45.982000237022	2.150284352286
1	1560	47.066375105068	5.285015460462
1	1580	47.741756934911	2.658327336893
1	1638	49.266348295397	6.256532939868
1	1694	51.466321485726	7.292645931388
1	1754	53.666294676055	8.213713471931
1	1779	54.454029895173	2.150284352286
1	1825	55.866267866384	9.284344629431
1	1894	58.066241056713	8.995434404989
1	1970	60.266214247042	8.551902840445
1	2062	63.548766552011	5.285015460462
1	2087	64.224148381854	2.387006088161
1	2116	65.114247907228	2.150284352286
1	2135	65.789629737071	6.379481629976
1	2204	67.948712932669	7.401153040262
1	2269	70.148686122998	5.477091515473
1	2380	74.044692594485	2.150284352286
1	2426	75.286019876956	5.285015460462
1	2446	75.961401706799	2.76802510093
1	2545	79.080266868972	2.150284352286
1	2583	80.239904115799	5.285015460462
1	2606	80.915285945642	2.783920050483
1	2630	81.590667775485	2.291552792883
1	2722	84.286303538488	5.285015460462
1	2766	85.582985018773	2.150284352286
1	2789	86.486276728817	6.395283616865
1	2820	87.16165855866	2.317754524537
1	2850	88.274977027133	2.150284352286
1	2876	89.275580813221	2.150284352286
1	2905	90.318236276668	2.150284352286
1	2923	90.993618106511	5.542818226196
1	3001	93.742906739281	2.150284352286
1	3080	96.282943925515	2.150284352286
1	3116	97.369584644686	5.285015460462
1	3139	98.044966474529	2.446897541289
1	3211	100.480177773905	2.150284352286
1	3267	101.984408656608	5.285015460462
1	3341	104.184381846937	6.243542839209
1	3431	107.24075945642	5.285015460462
1	3455	108.05922083526	2.150284352286
1	3486	109.410696690596	2.150284352286
1	3541	111.357433749952	5.285015460462
1	3563	112.032815579795	2.391103662667
1	3637	114.579784368907	2.150284352286
1	3775	119.572533444043	5.285015460462
1	3799	120.578518609444	2.150284352286
1	3826	121.74365212959	2.150284352286
1	3844	122.419033959433	7.071455887679
1	3868	123.102965325161	2.150284352286
1	3895	123.972479824701	7.134658918744
1	3950	125.504309983735	2.150284352286
1	3970	126.179691813578	8.219854691924
1	4038	128.372426205359	6.181820271351
1	4110	130.572399395688	7.314384139432
1	4164	132.308215371494	2.150284352286
1	4192	132.983597201337	7.569153753037
1	4216	133.773753666596	2.150284352286
1	4261	134.972345776346	8.396487559383
1	4305	136.213916243099	2.150284352286
1	4328	137.172318966675	9.257890177625
1	4349	137.847700796518	2.656012007807
1	4376	138.597584035176	2.150284352286
1	4397	139.372292157004	5.295065111107
1	4474	141.969970467857	5.285015460462
1	4509	142.985734813426	2.150284352286
1	4547	144.169943658186	6.285994571419
1	4572	144.845325488029	2.767359758386
1	4601	145.520707317872	2.289155113283
1	4662	147.670039831706	2.150284352286
1	4699	148.682328344252	2.150284352286
1	4721	149.676319810336	5.285015460462
1	4737	150.351701640179	2.767662226337
1	4766	151.133668390381	2.150284352286
1	4785	151.963931500686	5.285015460462
1	4804	152.639313330529	2.193231779149
1	4871	155.366240938821	2.150284352286
1	4911	156.753070461492	2.150284352286
1	4939	157.428452291335	5.39662178843
1	5004	159.516819153696	6.285377458455
1	5036	160.568309642536	2.150284352286
1	5070	161.716792344025	7.29248111465
1	5101	162.392174173868	2.674990896851
1	5119	163.067556003711	2.25334368275
1	5151	163.916765534354	7.106797468653
1	5172	164.592147364197	2.326445616575
1	5199	165.690409265621	2.150284352286
1	5241	167.163812851463	2.150284352286
1	5282	168.536817716092	5.285015460462
1	5339	170.791579351923	2.150284352286
1	5367	171.466961181766	5.334950611856
1	5380	172.226503387838	2.150284352286
1	5419	173.475770161999	2.150284352286
1	5445	174.151151991842	6.57696124229
1	5493	175.81697241103	7.165990406325
1	5568	178.016945601359	8.039706422634
1	5622	179.879342399001	2.150284352286
1	5645	180.554724228844	9.244549351439
1	5668	181.230106058687	2.318278498632
1	5693	182.416891982017	8.724726011332
1	5712	183.31044069298	2.150284352286
1	5744	184.616865172346	8.073240876843
1	5809	186.816838362675	9.222660321116
1	5832	187.587777428142	2.150284352286
1	5877	188.891550108138	2.150284352286
1	5896	189.566931937981	10.664005263054
1	5928	190.242313767824	2.162100529099
1	5955	191.216784743333	11.045273003259
1	5997	192.424601017544	2.150284352286
1	6032	193.416757933662	8.168944590826
1	6052	194.092139763505	2.468055140782
1	6103	195.616731123991	7.906256275479
1	6159	197.81670431432	6.064655262981
1	6231	200.016677504649	6.784162433482
1	6304	202.216650694978	7.706166778015
1	6330	202.892032524821	2.351258641002
1	6374	204.062955383491	2.150284352286
1	6386	204.738337213334	7.70791534991
1	6421	205.413719043177	2.314520748017
1	6458	206.616597075636	8.512180336559
1	6482	207.412807253353	2.150284352286
1	6530	208.816570265965	9.463864604061
1	6598	211.016543456294	10.446266800457
1	6620	211.691925286137	2.345434312638
1	6660	212.987979456132	2.150284352286
1	6676	213.663361285975	8.695213812102
1	6699	214.338743115818	2.202955791179
1	6725	215.416489836952	7.618539303503
1	6741	216.091871666795	2.570545669477
1	6766	216.767253496638	2.181111705551
1	6793	217.616463027281	7.401541244326
1	6815	218.291844857124	2.321970181264
1	6862	219.81643621761	8.265669506256
1	6889	220.698672565913	2.150284352286
1	6929	222.016409407939	9.035629410635
1	6953	222.691791237782	2.739378353672
1	6970	223.367173067625	2.367698966614
1	6988	224.203408966821	2.150284352286
1	7011	224.878790796664	8.448366624584
1	7026	225.554172626507	2.179760189877
1	7050	226.416355788597	8.570398323711
1	7121	228.616328978926	8.422468749009
1	7131	229.352987011012	2.150284352286
1	7210	232.431725437527	5.285015460462
1	7229	233.146267555354	2.150284352286
1	7269	234.45775171351	2.150284352286
1	7292	235.133133543353	6.802124107422
1	7315	235.866802238443	2.150284352286
1	7343	236.831671818185	7.095171515159
1	7359	237.507053648028	2.657884342259
1	7375	238.182435477871	2.302516851118
1	7406	239.377064647319	2.150284352286
1	7475	241.604349707652	2.150284352286
1	7515	243.039399602034	2.150284352286
1	7585	245.23989219743	5.285015460462
1	7613	245.915274027273	2.482324952137
1	7662	247.439865387759	6.286354627944
1	7731	249.639838578088	7.017766309929
1	7753	250.315220407931	2.628330153193
1	7789	251.839811768417	7.773939683371
1	7808	252.51519359826	2.333562790671
1	7854	254.039784958746	8.744902391847
1	7907	256.239758149075	8.366048641907
1	7976	258.439731339404	9.535832092812
1	8048	260.639704529733	10.732703573842
1	8120	262.839677720062	11.685744020239
1	8156	264.033091059236	2.150284352286
1	8188	265.039650910391	12.495274618243
1	8257	267.23962410072	11.844217237418
1	8307	269.370205497418	2.150284352286
1	8330	270.045587327261	13.320011163527
1	8370	271.639570481378	13.492655310084
1	8440	273.839543671707	12.918855121022
1	8507	276.039516862036	13.920736031279
1	8545	277.061395848568	2.150284352286
1	8576	278.22129951399	2.150284352286
1	8603	278.896681343833	14.253795783549
1	8628	279.645169182729	2.150284352286
1	8654	280.439463242694	13.534363086492
1	8710	281.994773559437	2.150284352286
1	8730	282.67015538928	14.339741233784
1	8760	283.345537219123	2.273348164662
1	8802	284.839409623352	12.673568838452
1	8886	287.039382813681	5.826802268344
1	8918	288.219475528739	2.150284352286
1	8962	289.695180936066	2.150284352286
1	9003	290.926703126334	2.150284352286
1	9031	291.718124073821	5.285015460462
1	9131	295.132177721483	5.285015460462
1	9158	296.202413652489	2.150284352286
1	9191	297.332150911812	6.301826464729
1	9220	298.007532741655	2.688187427242
1	9267	299.532124102141	7.104336496819
1	9351	301.73209729247	7.9365494999
1	9380	302.407479122313	2.348015969642
1	9404	303.392806279289	2.150284352286
1	9423	304.068188109132	8.783600858344
1	9479	306.132043673128	7.563522275824
1	9536	308.320244656226	2.150284352286
1	9567	308.995626486069	9.159850619314
1	9615	310.531990053786	9.644687561157
1	9693	312.731963244115	8.927712132304
1	9756	314.931936434444	8.158261362903
1	9782	315.89893058378	2.150284352286
1	9822	317.131909624773	6.794652877243
1	9849	317.807291454616	2.699106712564
1	9895	319.331882815102	7.54909491061
1	9939	320.865694341065	2.150284352286
1	9965	321.541076170908	6.920903367968
1	10031	323.458248084109	2.150284352286
1	10055	324.133629913952	8.322696008416
1	10104	325.661862642552	2.150284352286
1	10127	326.337244472395	9.231761387712
1	10152	327.012626302238	2.424896908143
1	10184	328.119944665745	2.150284352286
1	10208	328.795326495588	10.625546341342
1	10255	330.331748766747	10.932036274269
1	10329	332.531721957076	10.529523846044
1	10367	333.725470547962	2.150284352286
1	10400	334.731695147405	9.20631165622
1	10423	335.407076977248	2.755203560273
1	10477	336.931668337734	10.322011436403
1	10501	337.607050167577	2.457595336306
1	10577	339.514069188278	5.285015460462
1	10612	340.633318977013	2.150284352286
1	10644	341.762989730622	2.150284352286
1	10664	342.438371560465	5.524400192941
1	10716	344.081125425572	2.150284352286
1	10744	344.756507255415	6.528130658483
1	10803	346.598933208644	7.100033809575
1	10818	347.274315038487	2.613048999818
1	10868	348.798906398973	6.983919502971
1	10942	350.975916384768	2.150284352286
1	10971	351.651298214611	8.612372272229
1	11017	353.198852779631	8.878352404511
1	11039	353.874234609474	2.724694240997
1	11070	354.752067235114	2.150284352286
1	11088	355.427449064957	10.078762920387
1	11112	356.1028308948	2.455479808302
1	11166	358.022176141201	2.150284352286
1	11217	359.661599178341	5.285015460462
1	11272	361.304737663178	2.150284352286
1	11295	361.980119493021	6.535980725126
1	11371	364.061545558999	6.392040751437
1	11408	365.208272573936	2.150284352286
1	11441	366.261518749328	7.244868200775
1	11500	368.043641299873	2.150284352286
1	11527	368.719023129716	5.963038122678
1	11596	370.661465129986	6.472558243489
1	11642	372.173999670709	2.150284352286
1	11667	372.861438320315	7.58036461805
1	11686	373.64189946214	2.150284352286
1	11743	375.061411510644	8.625813012901
1	11802	376.913047132247	2.150284352286
1	11832	377.58842896209	9.987029392319
1	11882	379.461357891302	9.256557928607
1	11903	380.136739721145	2.739430092704
1	11931	380.812121550988	2.21552310263
1	11962	381.661331081631	9.042969375135
1	12007	382.881603225533	2.150284352286
1	12041	383.86130427196	9.858556451503
1	12114	386.061277462289	10.907952042184
1	12136	386.736659292132	2.249119959063
1	12174	387.839177293171	2.150284352286
1	12199	388.514559123014	12.077323375085
1	12262	390.461223842947	11.080416089877
1	12307	391.996838197394	2.150284352286
1	12331	392.672220027237	6.957681922638
1	12346	393.34760185708	2.204531444503
1	12402	394.861170223605	5.570507970679
1	12417	395.604123912219	2.150284352286
1	12453	396.850237302415	2.150284352286
1	12489	398.089418254103	5.285015460462
1	12504	398.764800083946	2.818338705456
1	12575	400.86066717341	5.285015460462
1	12598	401.650968010818	2.150284352286
1	12771	407.076048607596	5.285015460462
1	12786	407.751430437439	2.264670725326
1	12814	408.934878566234	2.150284352286
1	12833	409.610260396077	5.372426389996
1	12845	410.28564222592	2.27369559094
1	12901	412.553237614968	2.150284352286
1	13007	416.773680728752	5.285015460462
1	13072	418.973653919081	6.33270287632
1	13102	419.827526245895	2.150284352286
1	13145	421.17362710941	7.439505133224
1	13166	421.849008939253	2.81839043381
1	13194	422.524390769096	2.34717861576
1	13222	423.372001583036	2.150284352286
1	13239	424.047383412879	7.014845453597
1	13264	424.722765242722	2.254001748549
1	13288	425.649646571186	2.150284352286
1	13352	427.972751522833	2.150284352286
2	92	3.481415693042	1.023542018583
2	128	4.078645428002	1.484945562726
2	135	4.266116688508	3.029312668499
2	177	5.071721246005	2.679204700054
2	193	5.436696169865	3.947386998417
2	270	7.328545715781	2.679204700054
2	310	8.602002250411	3.118314235851
2	316	8.630968474788	2.679204700054
2	428	12.140229575251	3.118314235851
2	528	15.190255465456	2.679204700054
2	550	15.94121785954	3.118314235851
2	588	17.156927076782	3.118314235851
2	626	17.925904899491	2.679204700054
2	635	18.609250948912	3.118314235851
2	748	21.864563002721	2.679204700054
2	755	22.157154156741	3.118314235851
2	820	24.196812772779	2.679204700054
2	831	24.828274958216	3.118314235851
2	913	27.063051227162	3.118314235851
2	1000	29.511661109545	3.118314235851
2	1033	30.30438749027	2.679204700054
2	1041	30.682240590902	3.197253797419
2	1079	31.852820072259	3.321535199467
2	1112	32.973060181137	2.679204700054
2	1154	34.443749033619	2.679204700054
2	1158	34.552616388917	3.118314235851
2	1202	35.939279396351	3.118314235851
2	1327	39.757094920178	3.118314235851
2	1369	40.927674401535	3.240618910042
2	1449	43.324016585718	2.679204700054
2	1457	43.631585130731	3.118314235851
2	1485	44.593628384178	2.679204700054
2	1684	51.172888239526	3.118314235851
2	1708	51.730207582125	2.679204700054
2	1730	52.787949728551	2.679204700054
2	1757	53.676248996082	3.118314235851
2	1812	55.314492739043	2.679204700054
2	1835	56.109969548095	3.118314235851
2	1856	56.776976197148	2.679204700054
2	1869	57.284229229815	3.118314235851
2	1916	58.729990571067	3.118314235851
2	1961	60.121845777967	2.679204700054
2	2046	62.894009527407	2.679204700054
2	2102	64.866730899345	3.118314235851
2	2152	66.350291461479	3.118314235851
2	2162	66.523567179224	2.679204700054
2	2198	67.878735593293	2.679204700054
2	2237	69.250964575126	3.118314235851
2	2279	70.598599578166	3.118314235851
2	2307	71.526486681431	2.679204700054
2	2319	72.005438902444	3.118314235851
2	2337	72.718038125435	2.679204700054
2	2396	74.609608719038	3.118314235851
2	2439	75.891000281117	3.118314235851
2	2459	76.136899747076	2.679204700054
2	2481	77.07165311955	3.118314235851
2	2496	77.494503662927	2.679204700054
2	2550	79.227828535164	3.118314235851
2	2573	79.883079974685	2.679204700054
2	2602	80.71307538313	3.118314235851
2	2613	81.059026473906	2.679204700054
2	2735	84.537688324374	3.118314235851
2	2740	84.618093958829	2.679204700054
2	2769	85.668073214946	2.679204700054
2	2775	85.777565261262	3.118314235851
2	2805	86.85877179064	2.679204700054
2	2823	87.205942885048	3.118314235851
2	2838	88.061289595912	2.679204700054
2	2879	89.364443662699	2.679204700054
2	2898	90.04868524117	3.118314235851
2	2937	91.408949001139	3.118314235851
2	2963	92.288618677651	2.679204700054
2	2998	93.679358477943	2.679204700054
2	3077	96.268835044029	3.118314235851
2	3122	97.628645121032	3.118314235851
2	3159	98.520976724342	2.679204700054
2	3163	98.799224602389	3.288202039764
2	3227	100.779617317144	2.679204700054
2	3256	101.79789781152	2.679204700054
2	3272	102.137344916496	3.118314235851
2	3319	103.625286851572	3.118314235851
2	3381	105.39009171399	2.679204700054
2	3409	106.446674711681	3.118314235851
2	3413	106.564270088805	2.679204700054
2	3442	107.57714831853	2.679204700054
2	3449	107.77833367107	3.118314235851
2	3512	110.30770542578	2.679204700054
2	3523	110.55937181416	3.118314235851
2	3560	112.027930337615	3.118314235851
2	3593	113.009027060128	2.679204700054
2	3634	114.525531654042	3.118314235851
2	3686	116.024249716807	3.118314235851
2	3740	118.028035714065	2.679204700054
2	3847	122.456478215782	3.118314235851
2	3865	122.966984771432	2.679204700054
2	3891	123.822010822156	3.118314235851
2	3919	124.374584467274	2.679204700054
2	3953	125.635672400829	2.679204700054
2	3990	126.670263730579	2.679204700054
2	4013	127.464579183054	3.118314235851
2	4022	127.708047010827	2.679204700054
2	4138	131.53784551286	2.679204700054
2	4157	132.048073549318	3.118314235851
2	4174	132.554023629877	2.679204700054
2	4206	133.54708629151	3.118314235851
2	4248	134.717665772867	3.172702142836
2	4257	134.900650616044	2.679204700054
2	4295	136.022972395207	3.118314235851
2	4298	136.059015947983	2.679204700054
2	4331	137.191832224962	2.679204700054
2	4367	138.35085589104	3.118314235851
2	4421	139.999342561474	2.679204700054
2	4459	141.386593040668	2.679204700054
2	4495	142.501222083956	3.118314235851
2	4535	143.671801565313	3.155751724711
2	4541	143.823449580122	2.679204700054
2	4576	144.905291708309	2.679204700054
2	4579	144.921086046175	3.118314235851
2	4614	146.02793067997	2.679204700054
2	4627	146.410162916552	3.118314235851
2	4651	147.474817057379	2.679204700054
2	4689	148.544058815838	3.118314235851
2	4696	148.638268420595	2.679204700054
2	4762	151.047444398404	2.679204700054
2	4769	151.172746423544	3.118314235851
2	4796	152.242218650534	2.679204700054
2	4826	153.341714119312	2.679204700054
2	4862	154.797439554945	2.679204700054
2	4899	156.099264264928	2.679204700054
2	4983	158.826471837499	3.118314235851
2	5088	162.140100038173	3.118314235851
2	5104	162.404354111182	2.679204700054
2	5138	163.530890901019	3.118314235851
2	5145	163.654364813708	2.679204700054
2	5183	164.996105092722	3.118314235851
2	5262	167.838538835435	3.118314235851
2	5319	169.975454053615	2.679204700054
2	5353	171.059171962674	2.679204700054
2	5389	172.325334773056	2.679204700054
2	5435	173.719417077728	2.679204700054
2	5490	175.751734409511	3.118314235851
2	5510	176.138107233105	2.679204700054
2	5544	177.409783553455	2.679204700054
2	5571	178.198193633842	3.118314235851
2	5637	180.096872591886	2.679204700054
2	5675	181.575906180318	2.679204700054
2	5700	182.588501326514	2.679204700054
2	5727	183.628643743468	2.679204700054
2	5757	185.008783297271	2.679204700054
2	5907	189.824337085039	3.118314235851
2	5921	190.072994127993	2.679204700054
2	5984	192.065881491201	3.118314235851
2	6029	193.383815385546	3.118314235851
2	6043	193.960878079181	2.679204700054
2	6130	196.649055827183	2.679204700054
2	6179	198.109329621314	2.679204700054
2	6189	198.681345500895	3.118314235851
2	6224	199.505136890576	2.679204700054
2	6256	200.55854006252	2.679204700054
2	6389	204.806332128384	3.118314235851
2	6430	206.01924090067	3.118314235851
2	6461	206.656951641321	2.679204700054
2	6472	207.189820382027	3.274920567388
2	6553	209.527245345903	3.118314235851
2	6580	210.286109343992	2.679204700054
2	6614	211.517158108304	2.679204700054
2	6628	211.933759437204	3.118314235851
2	6653	212.919625893474	2.679204700054
2	6683	214.039772055234	2.679204700054
2	6805	217.923658858408	2.679204700054
2	6882	220.233109807251	2.679204700054
2	6912	221.29154338269	2.679204700054
2	6939	222.225826124689	3.118314235851
2	6946	222.296222669892	2.679204700054
2	6978	223.522821785072	2.679204700054
2	7004	224.542356389812	2.679204700054
2	7148	229.742616105946	2.679204700054
2	7213	232.50277866086	2.679204700054
2	7255	233.888423138303	2.679204700054
2	7264	234.083114102395	3.118314235851
2	7295	235.192294060025	2.679204700054
2	7299	235.362738252646	3.118314235851
2	7327	236.317604774614	2.679204700054
2	7335	236.665869204589	3.118314235851
2	7400	239.093868609522	2.679204700054
2	7483	241.846074816799	3.118314235851
2	7499	242.253892691577	2.679204700054
2	7575	244.763882198725	2.679204700054
2	7650	246.946512298663	2.679204700054
2	7683	248.09952370171	2.679204700054
2	7722	249.441324452409	2.679204700054
2	7725	249.570563188317	3.118314235851
2	7762	250.820043222751	2.679204700054
2	7876	254.877143873838	2.679204700054
2	7914	256.347863518405	2.679204700054
2	7936	257.147755963175	3.118314235851
2	7958	257.763337590504	2.679204700054
2	8032	260.08260912472	2.679204700054
2	8072	261.374708361464	2.679204700054
2	8112	262.628351050458	3.118314235851
2	8197	265.303093684144	2.679204700054
2	8228	266.495031763828	3.118314235851
2	8299	268.82496463147	2.679204700054
2	8303	269.009815493278	3.118314235851
2	8401	272.620733479881	3.118314235851
2	8436	273.76172523073	2.679204700054
2	8443	273.912302469979	3.118314235851
2	8475	274.939002470701	2.679204700054
2	8504	276.007918122463	2.679204700054
2	8517	276.422073796769	3.118314235851
2	8558	277.639551407104	3.118314235851
2	8587	278.41849280615	2.679204700054
2	8600	278.892936279444	3.118314235851
2	8646	280.21204583047	3.118314235851
2	8679	281.041461286374	2.679204700054
2	8692	281.507185789319	3.118314235851
2	8742	282.876601437484	3.118314235851
2	8756	283.309259155422	2.679204700054
2	8835	285.64684685241	3.118314235851
2	8883	287.030095790425	3.118314235851
2	8921	288.239489485771	3.118314235851
2	8959	289.659697290167	2.679204700054
2	8994	290.703197275317	3.118314235851
2	9037	291.926439068425	3.118314235851
2	9052	292.21664153203	2.679204700054
2	9079	293.317144275765	2.679204700054
2	9112	294.344078825909	2.679204700054
2	9148	295.4579320252	2.679204700054
2	9264	299.444899959519	3.118314235851
2	9313	300.615479440876	3.169882694708
2	9458	305.424730249362	3.118314235851
2	9516	307.284502017667	2.679204700054
2	9544	308.401081262769	3.118314235851
2	9550	308.465058737906	2.679204700054
2	9637	311.072889926641	3.118314235851
2	9685	312.370956438158	3.118314235851
2	9801	316.288029087039	3.118314235851
2	9845	317.740138115019	2.679204700054
2	9887	319.013110766194	2.679204700054
2	9923	320.202099002322	2.679204700054
2	10047	323.958574075863	3.118314235851
2	10085	324.862957308541	2.679204700054
2	10124	326.169574110333	3.118314235851
2	10130	326.342002745142	2.679204700054
2	10165	327.353199819133	3.118314235851
2	10170	327.578147937899	2.679204700054
2	10201	328.638341634075	2.679204700054
2	10241	329.946053337661	2.679204700054
2	10276	331.15469580298	3.118314235851
2	10279	331.181419414008	2.679204700054
2	10316	332.325275284337	3.252853641619
2	10320	332.3526157738	2.679204700054
2	10364	333.632028868335	3.118314235851
2	10396	334.619368604623	2.679204700054
2	10404	334.872307714104	3.118314235851
2	10448	336.042887195461	3.146546684072
2	10542	338.575086159894	3.118314235851
2	10615	340.730881306581	2.679204700054
2	10694	343.152202310745	2.679204700054
2	10708	343.727466422163	3.118314235851
2	10731	344.343189351499	2.679204700054
2	10849	348.027937935205	2.679204700054
2	10898	349.572878578358	3.118314235851
2	10927	350.34632071178	2.679204700054
2	10938	350.868089313648	3.118314235851
2	10989	352.282222783804	3.118314235851
2	11033	353.66060558756	3.118314235851
2	11058	354.28909084178	2.679204700054
2	11099	355.614359829928	2.679204700054
2	11117	356.22608627638	3.118314235851
2	11140	356.839044420984	2.679204700054
2	11163	357.950114382086	2.679204700054
2	11198	359.099697630973	2.679204700054
2	11339	363.279651162244	3.118314235851
2	11386	364.637919870235	3.118314235851
2	11444	366.315488432888	2.679204700054
2	11635	371.83800772953	3.118314235851
2	11676	373.083347925456	2.679204700054
2	11720	374.552251347371	3.118314235851
2	11761	375.419085869804	2.679204700054
2	11867	378.828432359622	2.679204700054
2	11907	380.160677973652	2.679204700054
2	11942	381.029051687482	3.118314235851
2	12033	383.632964007238	3.118314235851
2	12074	384.788594504359	2.679204700054
2	12077	384.803543488595	3.171747893544
2	12120	386.189950604488	3.118314235851
2	12124	386.211100930354	2.679204700054
2	12160	387.250179990434	2.679204700054
2	12166	387.67716462692	3.118314235851
2	12243	389.875695278782	3.118314235851
2	12310	392.00305499626	2.679204700054
2	12352	393.409270468407	2.679204700054
2	12361	393.536924255227	3.118314235851
2	12396	394.717048334919	3.118314235851
2	12435	396.113152623299	2.679204700054
2	12472	397.531391831936	2.679204700054
2	12515	398.928267455899	2.679204700054
2	12544	399.831388146297	3.118314235851
2	12584	401.178382215818	3.118314235851
2	12624	402.448478053586	3.118314235851
2	12664	403.827345189318	3.118314235851
2	12735	405.9598105521	3.118314235851
2	12757	406.639106163761	2.679204700054
2	12790	407.991996374453	2.679204700054
2	12808	408.506318832893	3.118314235851
2	12839	409.785610346036	3.118314235851
2	12891	412.014076291473	2.679204700054
2	13029	417.237868615083	2.679204700054
2	13043	417.870205449319	3.118314235851
2	13078	419.107267696207	3.118314235851
2	13188	422.257994026534	2.679204700054
2	13199	422.715877168725	3.118314235851
2	13219	423.368690105394	2.679204700054
2	13235	424.011163515534	3.118314235851
2	13274	425.27873883248	3.118314235851
2	13356	428.086665053509	2.679204700054
2	13390	429.188588640449	3.118314235851

