version 2
run General-48-20190610-18:04:07-15396
attr configname General
attr datetime 20190610-18:04:07
attr experiment General
attr inifile omnetpp.ini
attr iterationvars ""
attr iterationvarsf ""
attr measurement ""
attr network networks.Net5
attr processid 15396
attr repetition 48
attr replication #48
attr resultdir results
attr runnumber 48
attr seedset 48
param **.appType "\"App\""
param **.app.packetLength "1500 bytes"
param **.app.totalNodes 10
param **.destAddresses "\"0\""
param **.sendIaTime "uniform(5s, 10s)"
param **.sendIaTimeEvil 10ms

scalar Net5.rte[0].app hopCount:mean 2.5752212389381
attr interpolationmode none
attr title "hop count of arrived packets, mean"
scalar Net5.rte[0].app hopCount:max 4
attr interpolationmode none
attr title "hop count of arrived packets, max"
scalar Net5.rte[0].app endToEndDelay:mean 0.26245712881118
attr interpolationmode none
attr title "end-to-end delay of arrived packets, mean"
attr unit s
scalar Net5.rte[0].app endToEndDelay:max 0.408333333335
attr interpolationmode none
attr title "end-to-end delay of arrived packets, max"
attr unit s
statistic Net5.rte[0].routing outputIf:histogram
field count 227
field mean -0.49779735682819
field stddev 0.50110011134094
field min -1
field max 0
field sum -113
field sqrsum 113
attr interpolationmode none
attr title "output interface for each routed packet, histogram"
bin	-inf	0
bin	-2	0
bin	-1	113
bin	0	114
bin	1	0
scalar Net5.rte[0].routing drop:count 0
attr interpolationmode none
attr title "dropped packet byte length, count"
attr unit bytes
scalar Net5.rte[0].routing drop:sum 0
attr interpolationmode none
attr title "dropped packet byte length, sum"
attr unit bytes
scalar Net5.rte[0].queue[0] rxBytes:count 113
attr interpolationmode none
attr title "received packet byte length, count"
attr unit bytes
scalar Net5.rte[0].queue[0] rxBytes:sum 169850
attr interpolationmode none
attr title "received packet byte length, sum"
attr unit bytes
statistic Net5.rte[0].queue[0] rxBytes:histogram
field count 113
field mean 1503.0973451327
field stddev 15.00474008544
field min 1500
field max 1600
field sum 169850
field sqrsum 255326300
attr interpolationmode none
attr title "received packet byte length, histogram"
attr unit bytes
bin	-inf	0
bin	1474	0
bin	1476	0
bin	1478	0
bin	1480	0
bin	1482	0
bin	1484	0
bin	1486	0
bin	1488	0
bin	1490	0
bin	1492	0
bin	1494	0
bin	1496	0
bin	1498	0
bin	1500	107
bin	1502	0
bin	1504	0
bin	1506	0
bin	1508	0
bin	1510	1
bin	1512	0
bin	1514	0
bin	1516	0
bin	1518	0
bin	1520	0
bin	1522	0
bin	1524	0
bin	1526	0
bin	1528	0
bin	1530	0
bin	1532	0
bin	1534	0
bin	1536	0
bin	1538	0
bin	1540	2
bin	1542	0
bin	1544	0
bin	1546	0
bin	1548	0
bin	1550	0
bin	1552	0
bin	1554	0
bin	1556	0
bin	1558	0
bin	1560	0
bin	1562	0
bin	1564	0
bin	1566	0
bin	1568	0
bin	1570	1
bin	1572	0
bin	1574	0
bin	1576	0
bin	1578	0
bin	1580	0
bin	1582	0
bin	1584	0
bin	1586	0
bin	1588	0
bin	1590	1
bin	1592	0
bin	1594	0
bin	1596	0
bin	1598	0
bin	1600	1
bin	1602	0
bin	1604	0
bin	1606	0
bin	1608	0
bin	1610	0
bin	1612	0
bin	1614	0
bin	1616	0
bin	1618	0
bin	1620	0
bin	1622	0
bin	1624	0
bin	1626	0
scalar Net5.rte[0].queue[0] txBytes:count 114
attr interpolationmode none
attr title "transmitting packet byte length, count"
attr unit bytes
scalar Net5.rte[0].queue[0] txBytes:sum 171110
attr interpolationmode none
attr title "transmitting packet byte length, sum"
attr unit bytes
statistic Net5.rte[0].queue[0] txBytes:histogram
field count 114
field mean 1500.9649122807
field stddev 6.5133352990531
field min 1500
field max 1560
field sum 171110
field sqrsum 256834900
attr interpolationmode none
attr title "transmitting packet byte length, histogram"
attr unit bytes
bin	-inf	0
bin	1485	0
bin	1486	0
bin	1487	0
bin	1488	0
bin	1489	0
bin	1490	0
bin	1491	0
bin	1492	0
bin	1493	0
bin	1494	0
bin	1495	0
bin	1496	0
bin	1497	0
bin	1498	0
bin	1499	0
bin	1500	111
bin	1501	0
bin	1502	0
bin	1503	0
bin	1504	0
bin	1505	0
bin	1506	0
bin	1507	0
bin	1508	0
bin	1509	0
bin	1510	0
bin	1511	0
bin	1512	0
bin	1513	0
bin	1514	0
bin	1515	0
bin	1516	0
bin	1517	0
bin	1518	0
bin	1519	0
bin	1520	1
bin	1521	0
bin	1522	0
bin	1523	0
bin	1524	0
bin	1525	0
bin	1526	0
bin	1527	0
bin	1528	0
bin	1529	0
bin	1530	1
bin	1531	0
bin	1532	0
bin	1533	0
bin	1534	0
bin	1535	0
bin	1536	0
bin	1537	0
bin	1538	0
bin	1539	0
bin	1540	0
bin	1541	0
bin	1542	0
bin	1543	0
bin	1544	0
bin	1545	0
bin	1546	0
bin	1547	0
bin	1548	0
bin	1549	0
bin	1550	0
bin	1551	0
bin	1552	0
bin	1553	0
bin	1554	0
bin	1555	0
bin	1556	0
bin	1557	0
bin	1558	0
bin	1559	0
bin	1560	1
bin	1561	0
bin	1562	0
bin	1563	0
bin	1564	0
bin	1565	0
bin	1566	0
bin	1567	0
bin	1568	0
bin	1569	0
bin	1570	0
bin	1571	0
bin	1572	0
bin	1573	0
bin	1574	0
bin	1575	0
scalar Net5.rte[0].queue[0] busy:timeavg 0.0039231592941954
attr interpolationmode sample-hold
attr title "server busy state, timeavg"
scalar Net5.rte[0].queue[0] qlen:timeavg 0.014238103685999
attr interpolationmode sample-hold
attr title "queue length, timeavg"
scalar Net5.rte[0].queue[0] qlen:max 9
attr interpolationmode sample-hold
attr title "queue length, max"
scalar Net5.rte[0].queue[0] drop:count 0
attr interpolationmode none
attr title "dropped packet byte length, count"
attr unit bytes
scalar Net5.rte[0].queue[0] drop:sum 0
attr interpolationmode none
attr title "dropped packet byte length, sum"
attr unit bytes
scalar Net5.rte[1].app hopCount:mean 2.3008849557522
attr interpolationmode none
attr title "hop count of arrived packets, mean"
scalar Net5.rte[1].app hopCount:max 4
attr interpolationmode none
attr title "hop count of arrived packets, max"
scalar Net5.rte[1].app endToEndDelay:mean 0.23456096361935
attr interpolationmode none
attr title "end-to-end delay of arrived packets, mean"
attr unit s
scalar Net5.rte[1].app endToEndDelay:max 0.411666666669
attr interpolationmode none
attr title "end-to-end delay of arrived packets, max"
attr unit s
statistic Net5.rte[1].routing outputIf:histogram
field count 218
field mean -0.20183486238532
field stddev 0.89318790643311
field min -1
field max 1
field sum -44
field sqrsum 182
attr interpolationmode none
attr title "output interface for each routed packet, histogram"
bin	-inf	0
bin	-2	0
bin	-1	113
bin	0	36
bin	1	69
bin	2	0
scalar Net5.rte[1].routing drop:count 0
attr interpolationmode none
attr title "dropped packet byte length, count"
attr unit bytes
scalar Net5.rte[1].routing drop:sum 0
attr interpolationmode none
attr title "dropped packet byte length, sum"
attr unit bytes
scalar Net5.rte[1].queue[0] rxBytes:count 69
attr interpolationmode none
attr title "received packet byte length, count"
attr unit bytes
scalar Net5.rte[1].queue[0] rxBytes:sum 103640
attr interpolationmode none
attr title "received packet byte length, sum"
attr unit bytes
statistic Net5.rte[1].queue[0] rxBytes:histogram
field count 69
field mean 1502.0289855072
field stddev 13.674763160117
field min 1500
field max 1610
field sum 103640
field sqrsum 155683000
attr interpolationmode none
attr title "received packet byte length, histogram"
attr unit bytes
bin	-inf	0
bin	1472	0
bin	1474	0
bin	1476	0
bin	1478	0
bin	1480	0
bin	1482	0
bin	1484	0
bin	1486	0
bin	1488	0
bin	1490	0
bin	1492	0
bin	1494	0
bin	1496	0
bin	1498	0
bin	1500	67
bin	1502	0
bin	1504	0
bin	1506	0
bin	1508	0
bin	1510	0
bin	1512	0
bin	1514	0
bin	1516	0
bin	1518	0
bin	1520	0
bin	1522	0
bin	1524	0
bin	1526	0
bin	1528	0
bin	1530	1
bin	1532	0
bin	1534	0
bin	1536	0
bin	1538	0
bin	1540	0
bin	1542	0
bin	1544	0
bin	1546	0
bin	1548	0
bin	1550	0
bin	1552	0
bin	1554	0
bin	1556	0
bin	1558	0
bin	1560	0
bin	1562	0
bin	1564	0
bin	1566	0
bin	1568	0
bin	1570	0
bin	1572	0
bin	1574	0
bin	1576	0
bin	1578	0
bin	1580	0
bin	1582	0
bin	1584	0
bin	1586	0
bin	1588	0
bin	1590	0
bin	1592	0
bin	1594	0
bin	1596	0
bin	1598	0
bin	1600	0
bin	1602	0
bin	1604	0
bin	1606	0
bin	1608	0
bin	1610	1
bin	1612	0
bin	1614	0
bin	1616	0
bin	1618	0
bin	1620	0
bin	1622	0
bin	1624	0
bin	1626	0
bin	1628	0
bin	1630	0
bin	1632	0
bin	1634	0
bin	1636	0
bin	1638	0
scalar Net5.rte[1].queue[0] txBytes:count 36
attr interpolationmode none
attr title "transmitting packet byte length, count"
attr unit bytes
scalar Net5.rte[1].queue[0] txBytes:sum 54090
attr interpolationmode none
attr title "transmitting packet byte length, sum"
attr unit bytes
statistic Net5.rte[1].queue[0] txBytes:histogram
field count 36
field mean 1502.5
field stddev 15
field min 1500
field max 1590
field sum 54090
field sqrsum 81278100
attr interpolationmode none
attr title "transmitting packet byte length, histogram"
attr unit bytes
bin	-inf	0
bin	1476	0
bin	1478	0
bin	1480	0
bin	1482	0
bin	1484	0
bin	1486	0
bin	1488	0
bin	1490	0
bin	1492	0
bin	1494	0
bin	1496	0
bin	1498	0
bin	1500	35
bin	1502	0
bin	1504	0
bin	1506	0
bin	1508	0
bin	1510	0
bin	1512	0
bin	1514	0
bin	1516	0
bin	1518	0
bin	1520	0
bin	1522	0
bin	1524	0
bin	1526	0
bin	1528	0
bin	1530	0
bin	1532	0
bin	1534	0
bin	1536	0
bin	1538	0
bin	1540	0
bin	1542	0
bin	1544	0
bin	1546	0
bin	1548	0
bin	1550	0
bin	1552	0
bin	1554	0
bin	1556	0
bin	1558	0
bin	1560	0
bin	1562	0
bin	1564	0
bin	1566	0
bin	1568	0
bin	1570	0
bin	1572	0
bin	1574	0
bin	1576	0
bin	1578	0
bin	1580	0
bin	1582	0
bin	1584	0
bin	1586	0
bin	1588	0
bin	1590	1
bin	1592	0
bin	1594	0
bin	1596	0
bin	1598	0
bin	1600	0
bin	1602	0
bin	1604	0
bin	1606	0
bin	1608	0
bin	1610	0
bin	1612	0
bin	1614	0
scalar Net5.rte[1].queue[0] busy:timeavg 0.001240159465983
attr interpolationmode sample-hold
attr title "server busy state, timeavg"
scalar Net5.rte[1].queue[0] qlen:timeavg 0.0011349213083043
attr interpolationmode sample-hold
attr title "queue length, timeavg"
scalar Net5.rte[1].queue[0] qlen:max 3
attr interpolationmode sample-hold
attr title "queue length, max"
scalar Net5.rte[1].queue[0] drop:count 0
attr interpolationmode none
attr title "dropped packet byte length, count"
attr unit bytes
scalar Net5.rte[1].queue[0] drop:sum 0
attr interpolationmode none
attr title "dropped packet byte length, sum"
attr unit bytes
scalar Net5.rte[1].queue[1] rxBytes:count 44
attr interpolationmode none
attr title "received packet byte length, count"
attr unit bytes
scalar Net5.rte[1].queue[1] rxBytes:sum 66070
attr interpolationmode none
attr title "received packet byte length, sum"
attr unit bytes
statistic Net5.rte[1].queue[1] rxBytes:histogram
field count 44
field mean 1501.5909090909
field stddev 8.0530744723214
field min 1500
field max 1550
field sum 66070
field sqrsum 99212900
attr interpolationmode none
attr title "received packet byte length, histogram"
attr unit bytes
bin	-inf	0
bin	1487	0
bin	1488	0
bin	1489	0
bin	1490	0
bin	1491	0
bin	1492	0
bin	1493	0
bin	1494	0
bin	1495	0
bin	1496	0
bin	1497	0
bin	1498	0
bin	1499	0
bin	1500	42
bin	1501	0
bin	1502	0
bin	1503	0
bin	1504	0
bin	1505	0
bin	1506	0
bin	1507	0
bin	1508	0
bin	1509	0
bin	1510	0
bin	1511	0
bin	1512	0
bin	1513	0
bin	1514	0
bin	1515	0
bin	1516	0
bin	1517	0
bin	1518	0
bin	1519	0
bin	1520	1
bin	1521	0
bin	1522	0
bin	1523	0
bin	1524	0
bin	1525	0
bin	1526	0
bin	1527	0
bin	1528	0
bin	1529	0
bin	1530	0
bin	1531	0
bin	1532	0
bin	1533	0
bin	1534	0
bin	1535	0
bin	1536	0
bin	1537	0
bin	1538	0
bin	1539	0
bin	1540	0
bin	1541	0
bin	1542	0
bin	1543	0
bin	1544	0
bin	1545	0
bin	1546	0
bin	1547	0
bin	1548	0
bin	1549	0
bin	1550	1
bin	1551	0
bin	1552	0
bin	1553	0
bin	1554	0
bin	1555	0
bin	1556	0
bin	1557	0
bin	1558	0
bin	1559	0
bin	1560	0
bin	1561	0
bin	1562	0
bin	1563	0
scalar Net5.rte[1].queue[1] txBytes:count 69
attr interpolationmode none
attr title "transmitting packet byte length, count"
attr unit bytes
scalar Net5.rte[1].queue[1] txBytes:sum 103780
attr interpolationmode none
attr title "transmitting packet byte length, sum"
attr unit bytes
statistic Net5.rte[1].queue[1] txBytes:histogram
field count 69
field mean 1504.0579710145
field stddev 16.208098972218
field min 1500
field max 1590
field sum 103780
field sqrsum 156109000
attr interpolationmode none
attr title "transmitting packet byte length, histogram"
attr unit bytes
bin	-inf	0
bin	1476	0
bin	1478	0
bin	1480	0
bin	1482	0
bin	1484	0
bin	1486	0
bin	1488	0
bin	1490	0
bin	1492	0
bin	1494	0
bin	1496	0
bin	1498	0
bin	1500	64
bin	1502	0
bin	1504	0
bin	1506	0
bin	1508	0
bin	1510	0
bin	1512	0
bin	1514	0
bin	1516	0
bin	1518	0
bin	1520	1
bin	1522	0
bin	1524	0
bin	1526	0
bin	1528	0
bin	1530	0
bin	1532	0
bin	1534	0
bin	1536	0
bin	1538	0
bin	1540	1
bin	1542	0
bin	1544	0
bin	1546	0
bin	1548	0
bin	1550	1
bin	1552	0
bin	1554	0
bin	1556	0
bin	1558	0
bin	1560	0
bin	1562	0
bin	1564	0
bin	1566	0
bin	1568	0
bin	1570	0
bin	1572	0
bin	1574	0
bin	1576	0
bin	1578	0
bin	1580	1
bin	1582	0
bin	1584	0
bin	1586	0
bin	1588	0
bin	1590	1
bin	1592	0
bin	1594	0
bin	1596	0
bin	1598	0
bin	1600	0
bin	1602	0
bin	1604	0
bin	1606	0
bin	1608	0
bin	1610	0
bin	1612	0
bin	1614	0
scalar Net5.rte[1].queue[1] busy:timeavg 0.0023794370378711
attr interpolationmode sample-hold
attr title "server busy state, timeavg"
scalar Net5.rte[1].queue[1] qlen:timeavg 0.0050555585551736
attr interpolationmode sample-hold
attr title "queue length, timeavg"
scalar Net5.rte[1].queue[1] qlen:max 6
attr interpolationmode sample-hold
attr title "queue length, max"
scalar Net5.rte[1].queue[1] drop:count 0
attr interpolationmode none
attr title "dropped packet byte length, count"
attr unit bytes
scalar Net5.rte[1].queue[1] drop:sum 0
attr interpolationmode none
attr title "dropped packet byte length, sum"
attr unit bytes
scalar Net5.rte[2].app hopCount:mean 1.8521739130435
attr interpolationmode none
attr title "hop count of arrived packets, mean"
scalar Net5.rte[2].app hopCount:max 3
attr interpolationmode none
attr title "hop count of arrived packets, max"
scalar Net5.rte[2].app endToEndDelay:mean 0.18992048309268
attr interpolationmode none
attr title "end-to-end delay of arrived packets, mean"
attr unit s
scalar Net5.rte[2].app endToEndDelay:max 0.311666666669
attr interpolationmode none
attr title "end-to-end delay of arrived packets, max"
attr unit s
statistic Net5.rte[2].routing outputIf:histogram
field count 445
field mean 0.78651685393258
field stddev 1.359583187588
field min -1
field max 3
field sum 350
field sqrsum 1096
attr interpolationmode none
attr title "output interface for each routed packet, histogram"
bin	-inf	0
bin	-2	0
bin	-1	115
bin	0	69
bin	1	111
bin	2	96
bin	3	54
bin	4	0
scalar Net5.rte[2].routing drop:count 0
attr interpolationmode none
attr title "dropped packet byte length, count"
attr unit bytes
scalar Net5.rte[2].routing drop:sum 0
attr interpolationmode none
attr title "dropped packet byte length, sum"
attr unit bytes
scalar Net5.rte[2].queue[0] rxBytes:count 36
attr interpolationmode none
attr title "received packet byte length, count"
attr unit bytes
scalar Net5.rte[2].queue[0] rxBytes:sum 54090
attr interpolationmode none
attr title "received packet byte length, sum"
attr unit bytes
statistic Net5.rte[2].queue[0] rxBytes:histogram
field count 36
field mean 1502.5
field stddev 15
field min 1500
field max 1590
field sum 54090
field sqrsum 81278100
attr interpolationmode none
attr title "received packet byte length, histogram"
attr unit bytes
bin	-inf	0
bin	1476	0
bin	1478	0
bin	1480	0
bin	1482	0
bin	1484	0
bin	1486	0
bin	1488	0
bin	1490	0
bin	1492	0
bin	1494	0
bin	1496	0
bin	1498	0
bin	1500	35
bin	1502	0
bin	1504	0
bin	1506	0
bin	1508	0
bin	1510	0
bin	1512	0
bin	1514	0
bin	1516	0
bin	1518	0
bin	1520	0
bin	1522	0
bin	1524	0
bin	1526	0
bin	1528	0
bin	1530	0
bin	1532	0
bin	1534	0
bin	1536	0
bin	1538	0
bin	1540	0
bin	1542	0
bin	1544	0
bin	1546	0
bin	1548	0
bin	1550	0
bin	1552	0
bin	1554	0
bin	1556	0
bin	1558	0
bin	1560	0
bin	1562	0
bin	1564	0
bin	1566	0
bin	1568	0
bin	1570	0
bin	1572	0
bin	1574	0
bin	1576	0
bin	1578	0
bin	1580	0
bin	1582	0
bin	1584	0
bin	1586	0
bin	1588	0
bin	1590	1
bin	1592	0
bin	1594	0
bin	1596	0
bin	1598	0
bin	1600	0
bin	1602	0
bin	1604	0
bin	1606	0
bin	1608	0
bin	1610	0
bin	1612	0
bin	1614	0
scalar Net5.rte[2].queue[0] txBytes:count 69
attr interpolationmode none
attr title "transmitting packet byte length, count"
attr unit bytes
scalar Net5.rte[2].queue[0] txBytes:sum 103640
attr interpolationmode none
attr title "transmitting packet byte length, sum"
attr unit bytes
statistic Net5.rte[2].queue[0] txBytes:histogram
field count 69
field mean 1502.0289855072
field stddev 13.674763160117
field min 1500
field max 1610
field sum 103640
field sqrsum 155683000
attr interpolationmode none
attr title "transmitting packet byte length, histogram"
attr unit bytes
bin	-inf	0
bin	1472	0
bin	1474	0
bin	1476	0
bin	1478	0
bin	1480	0
bin	1482	0
bin	1484	0
bin	1486	0
bin	1488	0
bin	1490	0
bin	1492	0
bin	1494	0
bin	1496	0
bin	1498	0
bin	1500	67
bin	1502	0
bin	1504	0
bin	1506	0
bin	1508	0
bin	1510	0
bin	1512	0
bin	1514	0
bin	1516	0
bin	1518	0
bin	1520	0
bin	1522	0
bin	1524	0
bin	1526	0
bin	1528	0
bin	1530	1
bin	1532	0
bin	1534	0
bin	1536	0
bin	1538	0
bin	1540	0
bin	1542	0
bin	1544	0
bin	1546	0
bin	1548	0
bin	1550	0
bin	1552	0
bin	1554	0
bin	1556	0
bin	1558	0
bin	1560	0
bin	1562	0
bin	1564	0
bin	1566	0
bin	1568	0
bin	1570	0
bin	1572	0
bin	1574	0
bin	1576	0
bin	1578	0
bin	1580	0
bin	1582	0
bin	1584	0
bin	1586	0
bin	1588	0
bin	1590	0
bin	1592	0
bin	1594	0
bin	1596	0
bin	1598	0
bin	1600	0
bin	1602	0
bin	1604	0
bin	1606	0
bin	1608	0
bin	1610	1
bin	1612	0
bin	1614	0
bin	1616	0
bin	1618	0
bin	1620	0
bin	1622	0
bin	1624	0
bin	1626	0
bin	1628	0
bin	1630	0
bin	1632	0
bin	1634	0
bin	1636	0
bin	1638	0
scalar Net5.rte[2].queue[0] busy:timeavg 0.0023762271594355
attr interpolationmode sample-hold
attr title "server busy state, timeavg"
scalar Net5.rte[2].queue[0] qlen:timeavg 3.4391554797099e-005
attr interpolationmode sample-hold
attr title "queue length, timeavg"
scalar Net5.rte[2].queue[0] qlen:max 1
attr interpolationmode sample-hold
attr title "queue length, max"
scalar Net5.rte[2].queue[0] drop:count 0
attr interpolationmode none
attr title "dropped packet byte length, count"
attr unit bytes
scalar Net5.rte[2].queue[0] drop:sum 0
attr interpolationmode none
attr title "dropped packet byte length, sum"
attr unit bytes
scalar Net5.rte[2].queue[1] rxBytes:count 84
attr interpolationmode none
attr title "received packet byte length, count"
attr unit bytes
scalar Net5.rte[2].queue[1] rxBytes:sum 126450
attr interpolationmode none
attr title "received packet byte length, sum"
attr unit bytes
statistic Net5.rte[2].queue[1] rxBytes:histogram
field count 84
field mean 1505.3571428571
field stddev 17.036207265809
field min 1500
field max 1590
field sum 126450
field sqrsum 190376500
attr interpolationmode none
attr title "received packet byte length, histogram"
attr unit bytes
bin	-inf	0
bin	1476	0
bin	1478	0
bin	1480	0
bin	1482	0
bin	1484	0
bin	1486	0
bin	1488	0
bin	1490	0
bin	1492	0
bin	1494	0
bin	1496	0
bin	1498	0
bin	1500	74
bin	1502	0
bin	1504	0
bin	1506	0
bin	1508	0
bin	1510	1
bin	1512	0
bin	1514	0
bin	1516	0
bin	1518	0
bin	1520	1
bin	1522	0
bin	1524	0
bin	1526	0
bin	1528	0
bin	1530	3
bin	1532	0
bin	1534	0
bin	1536	0
bin	1538	0
bin	1540	1
bin	1542	0
bin	1544	0
bin	1546	0
bin	1548	0
bin	1550	0
bin	1552	0
bin	1554	0
bin	1556	0
bin	1558	0
bin	1560	2
bin	1562	0
bin	1564	0
bin	1566	0
bin	1568	0
bin	1570	0
bin	1572	0
bin	1574	0
bin	1576	0
bin	1578	0
bin	1580	1
bin	1582	0
bin	1584	0
bin	1586	0
bin	1588	0
bin	1590	1
bin	1592	0
bin	1594	0
bin	1596	0
bin	1598	0
bin	1600	0
bin	1602	0
bin	1604	0
bin	1606	0
bin	1608	0
bin	1610	0
bin	1612	0
bin	1614	0
scalar Net5.rte[2].queue[1] txBytes:count 111
attr interpolationmode none
attr title "transmitting packet byte length, count"
attr unit bytes
scalar Net5.rte[2].queue[1] txBytes:sum 166790
attr interpolationmode none
attr title "transmitting packet byte length, sum"
attr unit bytes
statistic Net5.rte[2].queue[1] txBytes:histogram
field count 111
field mean 1502.6126126126
field stddev 16.220733741488
field min 1500
field max 1630
field sum 166790
field sqrsum 250649700
attr interpolationmode none
attr title "transmitting packet byte length, histogram"
attr unit bytes
bin	-inf	0
bin	1498	108
bin	1502	0
bin	1506	0
bin	1510	0
bin	1514	0
bin	1518	0
bin	1522	0
bin	1526	0
bin	1530	0
bin	1534	0
bin	1538	0
bin	1542	0
bin	1546	0
bin	1550	0
bin	1554	0
bin	1558	0
bin	1562	0
bin	1566	0
bin	1570	0
bin	1574	0
bin	1578	2
bin	1582	0
bin	1586	0
bin	1590	0
bin	1594	0
bin	1598	0
bin	1602	0
bin	1606	0
bin	1610	0
bin	1614	0
bin	1618	0
bin	1622	0
bin	1626	0
bin	1630	1
bin	1634	0
scalar Net5.rte[2].queue[1] busy:timeavg 0.0038241116163995
attr interpolationmode sample-hold
attr title "server busy state, timeavg"
scalar Net5.rte[2].queue[1] qlen:timeavg 0.0044021190140287
attr interpolationmode sample-hold
attr title "queue length, timeavg"
scalar Net5.rte[2].queue[1] qlen:max 4
attr interpolationmode sample-hold
attr title "queue length, max"
scalar Net5.rte[2].queue[1] drop:count 0
attr interpolationmode none
attr title "dropped packet byte length, count"
attr unit bytes
scalar Net5.rte[2].queue[1] drop:sum 0
attr interpolationmode none
attr title "dropped packet byte length, sum"
attr unit bytes
scalar Net5.rte[2].queue[2] rxBytes:count 105
attr interpolationmode none
attr title "received packet byte length, count"
attr unit bytes
scalar Net5.rte[2].queue[2] rxBytes:sum 157640
attr interpolationmode none
attr title "received packet byte length, sum"
attr unit bytes
statistic Net5.rte[2].queue[2] rxBytes:histogram
field count 105
field mean 1501.3333333333
field stddev 8.3282035493298
field min 1500
field max 1580
field sum 157640
field sqrsum 236677400
attr interpolationmode none
attr title "received packet byte length, histogram"
attr unit bytes
bin	-inf	0
bin	1495	0
bin	1496	0
bin	1497	0
bin	1498	0
bin	1499	0
bin	1500	100
bin	1501	0
bin	1502	0
bin	1503	0
bin	1504	0
bin	1505	0
bin	1506	0
bin	1507	0
bin	1508	0
bin	1509	0
bin	1510	2
bin	1511	0
bin	1512	0
bin	1513	0
bin	1514	0
bin	1515	0
bin	1516	0
bin	1517	0
bin	1518	0
bin	1519	0
bin	1520	2
bin	1521	0
bin	1522	0
bin	1523	0
bin	1524	0
bin	1525	0
bin	1526	0
bin	1527	0
bin	1528	0
bin	1529	0
bin	1530	0
bin	1531	0
bin	1532	0
bin	1533	0
bin	1534	0
bin	1535	0
bin	1536	0
bin	1537	0
bin	1538	0
bin	1539	0
bin	1540	0
bin	1541	0
bin	1542	0
bin	1543	0
bin	1544	0
bin	1545	0
bin	1546	0
bin	1547	0
bin	1548	0
bin	1549	0
bin	1550	0
bin	1551	0
bin	1552	0
bin	1553	0
bin	1554	0
bin	1555	0
bin	1556	0
bin	1557	0
bin	1558	0
bin	1559	0
bin	1560	0
bin	1561	0
bin	1562	0
bin	1563	0
bin	1564	0
bin	1565	0
bin	1566	0
bin	1567	0
bin	1568	0
bin	1569	0
bin	1570	0
bin	1571	0
bin	1572	0
bin	1573	0
bin	1574	0
bin	1575	0
bin	1576	0
bin	1577	0
bin	1578	0
bin	1579	0
bin	1580	1
bin	1581	0
scalar Net5.rte[2].queue[2] txBytes:count 96
attr interpolationmode none
attr title "transmitting packet byte length, count"
attr unit bytes
scalar Net5.rte[2].queue[2] txBytes:sum 144320
attr interpolationmode none
attr title "transmitting packet byte length, sum"
attr unit bytes
statistic Net5.rte[2].queue[2] txBytes:histogram
field count 96
field mean 1503.3333333333
field stddev 18.103019036772
field min 1500
field max 1640
field sum 144320
field sqrsum 216992200
attr interpolationmode none
attr title "transmitting packet byte length, histogram"
attr unit bytes
bin	-inf	0
bin	1499	92
bin	1502	0
bin	1505	0
bin	1508	0
bin	1511	0
bin	1514	0
bin	1517	0
bin	1520	0
bin	1523	0
bin	1526	0
bin	1529	1
bin	1532	0
bin	1535	0
bin	1538	0
bin	1541	0
bin	1544	0
bin	1547	0
bin	1550	0
bin	1553	0
bin	1556	0
bin	1559	1
bin	1562	0
bin	1565	0
bin	1568	0
bin	1571	0
bin	1574	0
bin	1577	0
bin	1580	0
bin	1583	0
bin	1586	0
bin	1589	1
bin	1592	0
bin	1595	0
bin	1598	0
bin	1601	0
bin	1604	0
bin	1607	0
bin	1610	0
bin	1613	0
bin	1616	0
bin	1619	0
bin	1622	0
bin	1625	0
bin	1628	0
bin	1631	0
bin	1634	0
bin	1637	0
bin	1640	1
bin	1643	0
scalar Net5.rte[2].queue[2] busy:timeavg 0.0033089261255113
attr interpolationmode sample-hold
attr title "server busy state, timeavg"
scalar Net5.rte[2].queue[2] qlen:timeavg 0.0021666679522172
attr interpolationmode sample-hold
attr title "queue length, timeavg"
scalar Net5.rte[2].queue[2] qlen:max 3
attr interpolationmode sample-hold
attr title "queue length, max"
scalar Net5.rte[2].queue[2] drop:count 0
attr interpolationmode none
attr title "dropped packet byte length, count"
attr unit bytes
scalar Net5.rte[2].queue[2] drop:sum 0
attr interpolationmode none
attr title "dropped packet byte length, sum"
attr unit bytes
scalar Net5.rte[2].queue[3] rxBytes:count 44
attr interpolationmode none
attr title "received packet byte length, count"
attr unit bytes
scalar Net5.rte[2].queue[3] rxBytes:sum 66080
attr interpolationmode none
attr title "received packet byte length, sum"
attr unit bytes
statistic Net5.rte[2].queue[3] rxBytes:histogram
field count 44
field mean 1501.8181818182
field stddev 12.060453783112
field min 1500
field max 1580
field sum 66080
field sqrsum 99246400
attr interpolationmode none
attr title "received packet byte length, histogram"
attr unit bytes
bin	-inf	0
bin	1480	0
bin	1482	0
bin	1484	0
bin	1486	0
bin	1488	0
bin	1490	0
bin	1492	0
bin	1494	0
bin	1496	0
bin	1498	0
bin	1500	43
bin	1502	0
bin	1504	0
bin	1506	0
bin	1508	0
bin	1510	0
bin	1512	0
bin	1514	0
bin	1516	0
bin	1518	0
bin	1520	0
bin	1522	0
bin	1524	0
bin	1526	0
bin	1528	0
bin	1530	0
bin	1532	0
bin	1534	0
bin	1536	0
bin	1538	0
bin	1540	0
bin	1542	0
bin	1544	0
bin	1546	0
bin	1548	0
bin	1550	0
bin	1552	0
bin	1554	0
bin	1556	0
bin	1558	0
bin	1560	0
bin	1562	0
bin	1564	0
bin	1566	0
bin	1568	0
bin	1570	0
bin	1572	0
bin	1574	0
bin	1576	0
bin	1578	0
bin	1580	1
bin	1582	0
bin	1584	0
bin	1586	0
bin	1588	0
bin	1590	0
bin	1592	0
bin	1594	0
bin	1596	0
bin	1598	0
bin	1600	0
scalar Net5.rte[2].queue[3] txBytes:count 54
attr interpolationmode none
attr title "transmitting packet byte length, count"
attr unit bytes
scalar Net5.rte[2].queue[3] txBytes:sum 81110
attr interpolationmode none
attr title "transmitting packet byte length, sum"
attr unit bytes
statistic Net5.rte[2].queue[3] txBytes:histogram
field count 54
field mean 1502.037037037
field stddev 12.495981184852
field min 1500
field max 1590
field sum 81110
field sqrsum 121838500
attr interpolationmode none
attr title "transmitting packet byte length, histogram"
attr unit bytes
bin	-inf	0
bin	1476	0
bin	1478	0
bin	1480	0
bin	1482	0
bin	1484	0
bin	1486	0
bin	1488	0
bin	1490	0
bin	1492	0
bin	1494	0
bin	1496	0
bin	1498	0
bin	1500	52
bin	1502	0
bin	1504	0
bin	1506	0
bin	1508	0
bin	1510	0
bin	1512	0
bin	1514	0
bin	1516	0
bin	1518	0
bin	1520	1
bin	1522	0
bin	1524	0
bin	1526	0
bin	1528	0
bin	1530	0
bin	1532	0
bin	1534	0
bin	1536	0
bin	1538	0
bin	1540	0
bin	1542	0
bin	1544	0
bin	1546	0
bin	1548	0
bin	1550	0
bin	1552	0
bin	1554	0
bin	1556	0
bin	1558	0
bin	1560	0
bin	1562	0
bin	1564	0
bin	1566	0
bin	1568	0
bin	1570	0
bin	1572	0
bin	1574	0
bin	1576	0
bin	1578	0
bin	1580	0
bin	1582	0
bin	1584	0
bin	1586	0
bin	1588	0
bin	1590	1
bin	1592	0
bin	1594	0
bin	1596	0
bin	1598	0
bin	1600	0
bin	1602	0
bin	1604	0
bin	1606	0
bin	1608	0
bin	1610	0
bin	1612	0
bin	1614	0
scalar Net5.rte[2].queue[3] busy:timeavg 0.00185966600639
attr interpolationmode sample-hold
attr title "server busy state, timeavg"
scalar Net5.rte[2].queue[3] qlen:timeavg 1.3997425461033e-006
attr interpolationmode sample-hold
attr title "queue length, timeavg"
scalar Net5.rte[2].queue[3] qlen:max 1
attr interpolationmode sample-hold
attr title "queue length, max"
scalar Net5.rte[2].queue[3] drop:count 0
attr interpolationmode none
attr title "dropped packet byte length, count"
attr unit bytes
scalar Net5.rte[2].queue[3] drop:sum 0
attr interpolationmode none
attr title "dropped packet byte length, sum"
attr unit bytes
scalar Net5.rte[3].app hopCount:mean 1.6422018348624
attr interpolationmode none
attr title "hop count of arrived packets, mean"
scalar Net5.rte[3].app hopCount:max 3
attr interpolationmode none
attr title "hop count of arrived packets, max"
scalar Net5.rte[3].app endToEndDelay:mean 0.16960846075539
attr interpolationmode none
attr title "end-to-end delay of arrived packets, mean"
attr unit s
scalar Net5.rte[3].app endToEndDelay:max 0.308333333335
attr interpolationmode none
attr title "end-to-end delay of arrived packets, max"
attr unit s
statistic Net5.rte[3].routing outputIf:histogram
field count 535
field mean 0.78504672897196
field stddev 1.2648225096662
field min -1
field max 3
field sum 420
field sqrsum 1184
attr interpolationmode none
attr title "output interface for each routed packet, histogram"
bin	-inf	0
bin	-2	0
bin	-1	109
bin	0	113
bin	1	154
bin	2	102
bin	3	57
bin	4	0
scalar Net5.rte[3].routing drop:count 0
attr interpolationmode none
attr title "dropped packet byte length, count"
attr unit bytes
scalar Net5.rte[3].routing drop:sum 0
attr interpolationmode none
attr title "dropped packet byte length, sum"
attr unit bytes
scalar Net5.rte[3].queue[0] rxBytes:count 114
attr interpolationmode none
attr title "received packet byte length, count"
attr unit bytes
scalar Net5.rte[3].queue[0] rxBytes:sum 171110
attr interpolationmode none
attr title "received packet byte length, sum"
attr unit bytes
statistic Net5.rte[3].queue[0] rxBytes:histogram
field count 114
field mean 1500.9649122807
field stddev 6.5133352990531
field min 1500
field max 1560
field sum 171110
field sqrsum 256834900
attr interpolationmode none
attr title "received packet byte length, histogram"
attr unit bytes
bin	-inf	0
bin	1485	0
bin	1486	0
bin	1487	0
bin	1488	0
bin	1489	0
bin	1490	0
bin	1491	0
bin	1492	0
bin	1493	0
bin	1494	0
bin	1495	0
bin	1496	0
bin	1497	0
bin	1498	0
bin	1499	0
bin	1500	111
bin	1501	0
bin	1502	0
bin	1503	0
bin	1504	0
bin	1505	0
bin	1506	0
bin	1507	0
bin	1508	0
bin	1509	0
bin	1510	0
bin	1511	0
bin	1512	0
bin	1513	0
bin	1514	0
bin	1515	0
bin	1516	0
bin	1517	0
bin	1518	0
bin	1519	0
bin	1520	1
bin	1521	0
bin	1522	0
bin	1523	0
bin	1524	0
bin	1525	0
bin	1526	0
bin	1527	0
bin	1528	0
bin	1529	0
bin	1530	1
bin	1531	0
bin	1532	0
bin	1533	0
bin	1534	0
bin	1535	0
bin	1536	0
bin	1537	0
bin	1538	0
bin	1539	0
bin	1540	0
bin	1541	0
bin	1542	0
bin	1543	0
bin	1544	0
bin	1545	0
bin	1546	0
bin	1547	0
bin	1548	0
bin	1549	0
bin	1550	0
bin	1551	0
bin	1552	0
bin	1553	0
bin	1554	0
bin	1555	0
bin	1556	0
bin	1557	0
bin	1558	0
bin	1559	0
bin	1560	1
bin	1561	0
bin	1562	0
bin	1563	0
bin	1564	0
bin	1565	0
bin	1566	0
bin	1567	0
bin	1568	0
bin	1569	0
bin	1570	0
bin	1571	0
bin	1572	0
bin	1573	0
bin	1574	0
bin	1575	0
scalar Net5.rte[3].queue[0] txBytes:count 113
attr interpolationmode none
attr title "transmitting packet byte length, count"
attr unit bytes
scalar Net5.rte[3].queue[0] txBytes:sum 169850
attr interpolationmode none
attr title "transmitting packet byte length, sum"
attr unit bytes
statistic Net5.rte[3].queue[0] txBytes:histogram
field count 113
field mean 1503.0973451327
field stddev 15.00474008544
field min 1500
field max 1600
field sum 169850
field sqrsum 255326300
attr interpolationmode none
attr title "transmitting packet byte length, histogram"
attr unit bytes
bin	-inf	0
bin	1474	0
bin	1476	0
bin	1478	0
bin	1480	0
bin	1482	0
bin	1484	0
bin	1486	0
bin	1488	0
bin	1490	0
bin	1492	0
bin	1494	0
bin	1496	0
bin	1498	0
bin	1500	107
bin	1502	0
bin	1504	0
bin	1506	0
bin	1508	0
bin	1510	1
bin	1512	0
bin	1514	0
bin	1516	0
bin	1518	0
bin	1520	0
bin	1522	0
bin	1524	0
bin	1526	0
bin	1528	0
bin	1530	0
bin	1532	0
bin	1534	0
bin	1536	0
bin	1538	0
bin	1540	2
bin	1542	0
bin	1544	0
bin	1546	0
bin	1548	0
bin	1550	0
bin	1552	0
bin	1554	0
bin	1556	0
bin	1558	0
bin	1560	0
bin	1562	0
bin	1564	0
bin	1566	0
bin	1568	0
bin	1570	1
bin	1572	0
bin	1574	0
bin	1576	0
bin	1578	0
bin	1580	0
bin	1582	0
bin	1584	0
bin	1586	0
bin	1588	0
bin	1590	1
bin	1592	0
bin	1594	0
bin	1596	0
bin	1598	0
bin	1600	1
bin	1602	0
bin	1604	0
bin	1606	0
bin	1608	0
bin	1610	0
bin	1612	0
bin	1614	0
bin	1616	0
bin	1618	0
bin	1620	0
bin	1622	0
bin	1624	0
bin	1626	0
scalar Net5.rte[3].queue[0] busy:timeavg 0.0038942703881509
attr interpolationmode sample-hold
attr title "server busy state, timeavg"
scalar Net5.rte[3].queue[0] qlen:timeavg 6.8783109594198e-005
attr interpolationmode sample-hold
attr title "queue length, timeavg"
scalar Net5.rte[3].queue[0] qlen:max 1
attr interpolationmode sample-hold
attr title "queue length, max"
scalar Net5.rte[3].queue[0] drop:count 0
attr interpolationmode none
attr title "dropped packet byte length, count"
attr unit bytes
scalar Net5.rte[3].queue[0] drop:sum 0
attr interpolationmode none
attr title "dropped packet byte length, sum"
attr unit bytes
scalar Net5.rte[3].queue[1] rxBytes:count 169
attr interpolationmode none
attr title "received packet byte length, count"
attr unit bytes
scalar Net5.rte[3].queue[1] rxBytes:sum 253960
attr interpolationmode none
attr title "received packet byte length, sum"
attr unit bytes
statistic Net5.rte[3].queue[1] rxBytes:histogram
field count 169
field mean 1502.7218934911
field stddev 14.749481224545
field min 1500
field max 1600
field sum 253960
field sqrsum 381667800
attr interpolationmode none
attr title "received packet byte length, histogram"
attr unit bytes
bin	-inf	0
bin	1499	163
bin	1501	0
bin	1503	0
bin	1505	0
bin	1507	0
bin	1509	0
bin	1511	0
bin	1513	0
bin	1515	0
bin	1517	0
bin	1519	0
bin	1521	0
bin	1523	0
bin	1525	0
bin	1527	0
bin	1529	0
bin	1531	0
bin	1533	0
bin	1535	0
bin	1537	0
bin	1539	1
bin	1541	0
bin	1543	0
bin	1545	0
bin	1547	0
bin	1549	0
bin	1551	0
bin	1553	0
bin	1555	0
bin	1557	0
bin	1559	1
bin	1561	0
bin	1563	0
bin	1565	0
bin	1567	0
bin	1569	0
bin	1571	0
bin	1573	0
bin	1575	0
bin	1577	0
bin	1579	1
bin	1581	0
bin	1583	0
bin	1585	0
bin	1587	0
bin	1589	2
bin	1591	0
bin	1593	0
bin	1595	0
bin	1597	0
bin	1599	1
bin	1601	0
scalar Net5.rte[3].queue[1] txBytes:count 154
attr interpolationmode none
attr title "transmitting packet byte length, count"
attr unit bytes
scalar Net5.rte[3].queue[1] txBytes:sum 231120
attr interpolationmode none
attr title "transmitting packet byte length, sum"
attr unit bytes
statistic Net5.rte[3].queue[1] txBytes:histogram
field count 154
field mean 1500.7792207792
field stddev 5.8892244051924
field min 1500
field max 1560
field sum 231120
field sqrsum 346865400
attr interpolationmode none
attr title "transmitting packet byte length, histogram"
attr unit bytes
bin	-inf	0
bin	1492	0
bin	1493	0
bin	1494	0
bin	1495	0
bin	1496	0
bin	1497	0
bin	1498	0
bin	1499	0
bin	1500	151
bin	1501	0
bin	1502	0
bin	1503	0
bin	1504	0
bin	1505	0
bin	1506	0
bin	1507	0
bin	1508	0
bin	1509	0
bin	1510	0
bin	1511	0
bin	1512	0
bin	1513	0
bin	1514	0
bin	1515	0
bin	1516	0
bin	1517	0
bin	1518	0
bin	1519	0
bin	1520	0
bin	1521	0
bin	1522	0
bin	1523	0
bin	1524	0
bin	1525	0
bin	1526	0
bin	1527	0
bin	1528	0
bin	1529	0
bin	1530	2
bin	1531	0
bin	1532	0
bin	1533	0
bin	1534	0
bin	1535	0
bin	1536	0
bin	1537	0
bin	1538	0
bin	1539	0
bin	1540	0
bin	1541	0
bin	1542	0
bin	1543	0
bin	1544	0
bin	1545	0
bin	1546	0
bin	1547	0
bin	1548	0
bin	1549	0
bin	1550	0
bin	1551	0
bin	1552	0
bin	1553	0
bin	1554	0
bin	1555	0
bin	1556	0
bin	1557	0
bin	1558	0
bin	1559	0
bin	1560	1
bin	1561	0
scalar Net5.rte[3].queue[1] busy:timeavg 0.005299050763109
attr interpolationmode sample-hold
attr title "server busy state, timeavg"
scalar Net5.rte[3].queue[1] qlen:timeavg 0.0019603186234346
attr interpolationmode sample-hold
attr title "queue length, timeavg"
scalar Net5.rte[3].queue[1] qlen:max 3
attr interpolationmode sample-hold
attr title "queue length, max"
scalar Net5.rte[3].queue[1] drop:count 0
attr interpolationmode none
attr title "dropped packet byte length, count"
attr unit bytes
scalar Net5.rte[3].queue[1] drop:sum 0
attr interpolationmode none
attr title "dropped packet byte length, sum"
attr unit bytes
scalar Net5.rte[3].queue[2] rxBytes:count 94
attr interpolationmode none
attr title "received packet byte length, count"
attr unit bytes
scalar Net5.rte[3].queue[2] rxBytes:sum 141190
attr interpolationmode none
attr title "received packet byte length, sum"
attr unit bytes
statistic Net5.rte[3].queue[2] rxBytes:histogram
field count 94
field mean 1502.0212765957
field stddev 15.280867736583
field min 1500
field max 1640
field sum 141190
field sqrsum 212092100
attr interpolationmode none
attr title "received packet byte length, histogram"
attr unit bytes
bin	-inf	0
bin	1499	92
bin	1502	0
bin	1505	0
bin	1508	0
bin	1511	0
bin	1514	0
bin	1517	0
bin	1520	0
bin	1523	0
bin	1526	0
bin	1529	0
bin	1532	0
bin	1535	0
bin	1538	0
bin	1541	0
bin	1544	0
bin	1547	0
bin	1550	1
bin	1553	0
bin	1556	0
bin	1559	0
bin	1562	0
bin	1565	0
bin	1568	0
bin	1571	0
bin	1574	0
bin	1577	0
bin	1580	0
bin	1583	0
bin	1586	0
bin	1589	0
bin	1592	0
bin	1595	0
bin	1598	0
bin	1601	0
bin	1604	0
bin	1607	0
bin	1610	0
bin	1613	0
bin	1616	0
bin	1619	0
bin	1622	0
bin	1625	0
bin	1628	0
bin	1631	0
bin	1634	0
bin	1637	0
bin	1640	1
bin	1643	0
scalar Net5.rte[3].queue[2] txBytes:count 102
attr interpolationmode none
attr title "transmitting packet byte length, count"
attr unit bytes
scalar Net5.rte[3].queue[2] txBytes:sum 153180
attr interpolationmode none
attr title "transmitting packet byte length, sum"
attr unit bytes
statistic Net5.rte[3].queue[2] txBytes:histogram
field count 102
field mean 1501.7647058824
field stddev 10.846522890937
field min 1500
field max 1590
field sum 153180
field sqrsum 230052200
attr interpolationmode none
attr title "transmitting packet byte length, histogram"
attr unit bytes
bin	-inf	0
bin	1476	0
bin	1478	0
bin	1480	0
bin	1482	0
bin	1484	0
bin	1486	0
bin	1488	0
bin	1490	0
bin	1492	0
bin	1494	0
bin	1496	0
bin	1498	0
bin	1500	98
bin	1502	0
bin	1504	0
bin	1506	0
bin	1508	0
bin	1510	1
bin	1512	0
bin	1514	0
bin	1516	0
bin	1518	0
bin	1520	1
bin	1522	0
bin	1524	0
bin	1526	0
bin	1528	0
bin	1530	0
bin	1532	0
bin	1534	0
bin	1536	0
bin	1538	0
bin	1540	0
bin	1542	0
bin	1544	0
bin	1546	0
bin	1548	0
bin	1550	0
bin	1552	0
bin	1554	0
bin	1556	0
bin	1558	0
bin	1560	1
bin	1562	0
bin	1564	0
bin	1566	0
bin	1568	0
bin	1570	0
bin	1572	0
bin	1574	0
bin	1576	0
bin	1578	0
bin	1580	0
bin	1582	0
bin	1584	0
bin	1586	0
bin	1588	0
bin	1590	1
bin	1592	0
bin	1594	0
bin	1596	0
bin	1598	0
bin	1600	0
bin	1602	0
bin	1604	0
bin	1606	0
bin	1608	0
bin	1610	0
bin	1612	0
bin	1614	0
scalar Net5.rte[3].queue[2] busy:timeavg 0.0035120655758583
attr interpolationmode sample-hold
attr title "server busy state, timeavg"
scalar Net5.rte[3].queue[2] qlen:timeavg 0.001375662191884
attr interpolationmode sample-hold
attr title "queue length, timeavg"
scalar Net5.rte[3].queue[2] qlen:max 3
attr interpolationmode sample-hold
attr title "queue length, max"
scalar Net5.rte[3].queue[2] drop:count 0
attr interpolationmode none
attr title "dropped packet byte length, count"
attr unit bytes
scalar Net5.rte[3].queue[2] drop:sum 0
attr interpolationmode none
attr title "dropped packet byte length, sum"
attr unit bytes
scalar Net5.rte[3].queue[3] rxBytes:count 57
attr interpolationmode none
attr title "received packet byte length, count"
attr unit bytes
scalar Net5.rte[3].queue[3] rxBytes:sum 85630
attr interpolationmode none
attr title "received packet byte length, sum"
attr unit bytes
statistic Net5.rte[3].queue[3] rxBytes:histogram
field count 57
field mean 1502.2807017544
field stddev 9.8229948625717
field min 1500
field max 1560
field sum 85630
field sqrsum 128645700
attr interpolationmode none
attr title "received packet byte length, histogram"
attr unit bytes
bin	-inf	0
bin	1485	0
bin	1486	0
bin	1487	0
bin	1488	0
bin	1489	0
bin	1490	0
bin	1491	0
bin	1492	0
bin	1493	0
bin	1494	0
bin	1495	0
bin	1496	0
bin	1497	0
bin	1498	0
bin	1499	0
bin	1500	53
bin	1501	0
bin	1502	0
bin	1503	0
bin	1504	0
bin	1505	0
bin	1506	0
bin	1507	0
bin	1508	0
bin	1509	0
bin	1510	1
bin	1511	0
bin	1512	0
bin	1513	0
bin	1514	0
bin	1515	0
bin	1516	0
bin	1517	0
bin	1518	0
bin	1519	0
bin	1520	1
bin	1521	0
bin	1522	0
bin	1523	0
bin	1524	0
bin	1525	0
bin	1526	0
bin	1527	0
bin	1528	0
bin	1529	0
bin	1530	0
bin	1531	0
bin	1532	0
bin	1533	0
bin	1534	0
bin	1535	0
bin	1536	0
bin	1537	0
bin	1538	0
bin	1539	0
bin	1540	1
bin	1541	0
bin	1542	0
bin	1543	0
bin	1544	0
bin	1545	0
bin	1546	0
bin	1547	0
bin	1548	0
bin	1549	0
bin	1550	0
bin	1551	0
bin	1552	0
bin	1553	0
bin	1554	0
bin	1555	0
bin	1556	0
bin	1557	0
bin	1558	0
bin	1559	0
bin	1560	1
bin	1561	0
bin	1562	0
bin	1563	0
bin	1564	0
bin	1565	0
bin	1566	0
bin	1567	0
bin	1568	0
bin	1569	0
bin	1570	0
bin	1571	0
bin	1572	0
bin	1573	0
bin	1574	0
bin	1575	0
scalar Net5.rte[3].queue[3] txBytes:count 57
attr interpolationmode none
attr title "transmitting packet byte length, count"
attr unit bytes
scalar Net5.rte[3].queue[3] txBytes:sum 85610
attr interpolationmode none
attr title "transmitting packet byte length, sum"
attr unit bytes
statistic Net5.rte[3].queue[3] txBytes:histogram
field count 57
field mean 1501.9298245614
field stddev 10.253674688203
field min 1500
field max 1560
field sum 85610
field sqrsum 128586100
attr interpolationmode none
attr title "transmitting packet byte length, histogram"
attr unit bytes
bin	-inf	0
bin	1485	0
bin	1486	0
bin	1487	0
bin	1488	0
bin	1489	0
bin	1490	0
bin	1491	0
bin	1492	0
bin	1493	0
bin	1494	0
bin	1495	0
bin	1496	0
bin	1497	0
bin	1498	0
bin	1499	0
bin	1500	55
bin	1501	0
bin	1502	0
bin	1503	0
bin	1504	0
bin	1505	0
bin	1506	0
bin	1507	0
bin	1508	0
bin	1509	0
bin	1510	0
bin	1511	0
bin	1512	0
bin	1513	0
bin	1514	0
bin	1515	0
bin	1516	0
bin	1517	0
bin	1518	0
bin	1519	0
bin	1520	0
bin	1521	0
bin	1522	0
bin	1523	0
bin	1524	0
bin	1525	0
bin	1526	0
bin	1527	0
bin	1528	0
bin	1529	0
bin	1530	0
bin	1531	0
bin	1532	0
bin	1533	0
bin	1534	0
bin	1535	0
bin	1536	0
bin	1537	0
bin	1538	0
bin	1539	0
bin	1540	0
bin	1541	0
bin	1542	0
bin	1543	0
bin	1544	0
bin	1545	0
bin	1546	0
bin	1547	0
bin	1548	0
bin	1549	0
bin	1550	1
bin	1551	0
bin	1552	0
bin	1553	0
bin	1554	0
bin	1555	0
bin	1556	0
bin	1557	0
bin	1558	0
bin	1559	0
bin	1560	1
bin	1561	0
bin	1562	0
bin	1563	0
bin	1564	0
bin	1565	0
bin	1566	0
bin	1567	0
bin	1568	0
bin	1569	0
bin	1570	0
bin	1571	0
bin	1572	0
bin	1573	0
bin	1574	0
bin	1575	0
scalar Net5.rte[3].queue[3] busy:timeavg 0.0019628406707607
attr interpolationmode sample-hold
attr title "server busy state, timeavg"
scalar Net5.rte[3].queue[3] qlen:timeavg 3.4391554797099e-005
attr interpolationmode sample-hold
attr title "queue length, timeavg"
scalar Net5.rte[3].queue[3] qlen:max 1
attr interpolationmode sample-hold
attr title "queue length, max"
scalar Net5.rte[3].queue[3] drop:count 0
attr interpolationmode none
attr title "dropped packet byte length, count"
attr unit bytes
scalar Net5.rte[3].queue[3] drop:sum 0
attr interpolationmode none
attr title "dropped packet byte length, sum"
attr unit bytes
scalar Net5.rte[4].app hopCount:mean 1.6727272727273
attr interpolationmode none
attr title "hop count of arrived packets, mean"
scalar Net5.rte[4].app hopCount:max 3
attr interpolationmode none
attr title "hop count of arrived packets, max"
scalar Net5.rte[4].app endToEndDelay:mean 0.17302070707185
attr interpolationmode none
attr title "end-to-end delay of arrived packets, mean"
attr unit s
scalar Net5.rte[4].app endToEndDelay:max 0.311666666669
attr interpolationmode none
attr title "end-to-end delay of arrived packets, max"
attr unit s
statistic Net5.rte[4].routing outputIf:histogram
field count 413
field mean 0.78450363196126
field stddev 1.2461794265734
field min -1
field max 2
field sum 324
field sqrsum 894
attr interpolationmode none
attr title "output interface for each routed packet, histogram"
bin	-inf	0
bin	-2	0
bin	-1	110
bin	0	44
bin	1	84
bin	2	175
bin	3	0
scalar Net5.rte[4].routing drop:count 0
attr interpolationmode none
attr title "dropped packet byte length, count"
attr unit bytes
scalar Net5.rte[4].routing drop:sum 0
attr interpolationmode none
attr title "dropped packet byte length, sum"
attr unit bytes
scalar Net5.rte[4].queue[0] rxBytes:count 69
attr interpolationmode none
attr title "received packet byte length, count"
attr unit bytes
scalar Net5.rte[4].queue[0] rxBytes:sum 103780
attr interpolationmode none
attr title "received packet byte length, sum"
attr unit bytes
statistic Net5.rte[4].queue[0] rxBytes:histogram
field count 69
field mean 1504.0579710145
field stddev 16.208098972218
field min 1500
field max 1590
field sum 103780
field sqrsum 156109000
attr interpolationmode none
attr title "received packet byte length, histogram"
attr unit bytes
bin	-inf	0
bin	1476	0
bin	1478	0
bin	1480	0
bin	1482	0
bin	1484	0
bin	1486	0
bin	1488	0
bin	1490	0
bin	1492	0
bin	1494	0
bin	1496	0
bin	1498	0
bin	1500	64
bin	1502	0
bin	1504	0
bin	1506	0
bin	1508	0
bin	1510	0
bin	1512	0
bin	1514	0
bin	1516	0
bin	1518	0
bin	1520	1
bin	1522	0
bin	1524	0
bin	1526	0
bin	1528	0
bin	1530	0
bin	1532	0
bin	1534	0
bin	1536	0
bin	1538	0
bin	1540	1
bin	1542	0
bin	1544	0
bin	1546	0
bin	1548	0
bin	1550	1
bin	1552	0
bin	1554	0
bin	1556	0
bin	1558	0
bin	1560	0
bin	1562	0
bin	1564	0
bin	1566	0
bin	1568	0
bin	1570	0
bin	1572	0
bin	1574	0
bin	1576	0
bin	1578	0
bin	1580	1
bin	1582	0
bin	1584	0
bin	1586	0
bin	1588	0
bin	1590	1
bin	1592	0
bin	1594	0
bin	1596	0
bin	1598	0
bin	1600	0
bin	1602	0
bin	1604	0
bin	1606	0
bin	1608	0
bin	1610	0
bin	1612	0
bin	1614	0
scalar Net5.rte[4].queue[0] txBytes:count 44
attr interpolationmode none
attr title "transmitting packet byte length, count"
attr unit bytes
scalar Net5.rte[4].queue[0] txBytes:sum 66070
attr interpolationmode none
attr title "transmitting packet byte length, sum"
attr unit bytes
statistic Net5.rte[4].queue[0] txBytes:histogram
field count 44
field mean 1501.5909090909
field stddev 8.0530744723214
field min 1500
field max 1550
field sum 66070
field sqrsum 99212900
attr interpolationmode none
attr title "transmitting packet byte length, histogram"
attr unit bytes
bin	-inf	0
bin	1487	0
bin	1488	0
bin	1489	0
bin	1490	0
bin	1491	0
bin	1492	0
bin	1493	0
bin	1494	0
bin	1495	0
bin	1496	0
bin	1497	0
bin	1498	0
bin	1499	0
bin	1500	42
bin	1501	0
bin	1502	0
bin	1503	0
bin	1504	0
bin	1505	0
bin	1506	0
bin	1507	0
bin	1508	0
bin	1509	0
bin	1510	0
bin	1511	0
bin	1512	0
bin	1513	0
bin	1514	0
bin	1515	0
bin	1516	0
bin	1517	0
bin	1518	0
bin	1519	0
bin	1520	1
bin	1521	0
bin	1522	0
bin	1523	0
bin	1524	0
bin	1525	0
bin	1526	0
bin	1527	0
bin	1528	0
bin	1529	0
bin	1530	0
bin	1531	0
bin	1532	0
bin	1533	0
bin	1534	0
bin	1535	0
bin	1536	0
bin	1537	0
bin	1538	0
bin	1539	0
bin	1540	0
bin	1541	0
bin	1542	0
bin	1543	0
bin	1544	0
bin	1545	0
bin	1546	0
bin	1547	0
bin	1548	0
bin	1549	0
bin	1550	1
bin	1551	0
bin	1552	0
bin	1553	0
bin	1554	0
bin	1555	0
bin	1556	0
bin	1557	0
bin	1558	0
bin	1559	0
bin	1560	0
bin	1561	0
bin	1562	0
bin	1563	0
scalar Net5.rte[4].queue[0] busy:timeavg 0.0015148333502799
attr interpolationmode sample-hold
attr title "server busy state, timeavg"
scalar Net5.rte[4].queue[0] qlen:timeavg 0
attr interpolationmode sample-hold
attr title "queue length, timeavg"
scalar Net5.rte[4].queue[0] qlen:max 0
attr interpolationmode sample-hold
attr title "queue length, max"
scalar Net5.rte[4].queue[0] drop:count 0
attr interpolationmode none
attr title "dropped packet byte length, count"
attr unit bytes
scalar Net5.rte[4].queue[0] drop:sum 0
attr interpolationmode none
attr title "dropped packet byte length, sum"
attr unit bytes
scalar Net5.rte[4].queue[1] rxBytes:count 111
attr interpolationmode none
attr title "received packet byte length, count"
attr unit bytes
scalar Net5.rte[4].queue[1] rxBytes:sum 166790
attr interpolationmode none
attr title "received packet byte length, sum"
attr unit bytes
statistic Net5.rte[4].queue[1] rxBytes:histogram
field count 111
field mean 1502.6126126126
field stddev 16.220733741488
field min 1500
field max 1630
field sum 166790
field sqrsum 250649700
attr interpolationmode none
attr title "received packet byte length, histogram"
attr unit bytes
bin	-inf	0
bin	1498	108
bin	1502	0
bin	1506	0
bin	1510	0
bin	1514	0
bin	1518	0
bin	1522	0
bin	1526	0
bin	1530	0
bin	1534	0
bin	1538	0
bin	1542	0
bin	1546	0
bin	1550	0
bin	1554	0
bin	1558	0
bin	1562	0
bin	1566	0
bin	1570	0
bin	1574	0
bin	1578	2
bin	1582	0
bin	1586	0
bin	1590	0
bin	1594	0
bin	1598	0
bin	1602	0
bin	1606	0
bin	1610	0
bin	1614	0
bin	1618	0
bin	1622	0
bin	1626	0
bin	1630	1
bin	1634	0
scalar Net5.rte[4].queue[1] txBytes:count 84
attr interpolationmode none
attr title "transmitting packet byte length, count"
attr unit bytes
scalar Net5.rte[4].queue[1] txBytes:sum 126450
attr interpolationmode none
attr title "transmitting packet byte length, sum"
attr unit bytes
statistic Net5.rte[4].queue[1] txBytes:histogram
field count 84
field mean 1505.3571428571
field stddev 17.036207265809
field min 1500
field max 1590
field sum 126450
field sqrsum 190376500
attr interpolationmode none
attr title "transmitting packet byte length, histogram"
attr unit bytes
bin	-inf	0
bin	1476	0
bin	1478	0
bin	1480	0
bin	1482	0
bin	1484	0
bin	1486	0
bin	1488	0
bin	1490	0
bin	1492	0
bin	1494	0
bin	1496	0
bin	1498	0
bin	1500	74
bin	1502	0
bin	1504	0
bin	1506	0
bin	1508	0
bin	1510	1
bin	1512	0
bin	1514	0
bin	1516	0
bin	1518	0
bin	1520	1
bin	1522	0
bin	1524	0
bin	1526	0
bin	1528	0
bin	1530	3
bin	1532	0
bin	1534	0
bin	1536	0
bin	1538	0
bin	1540	1
bin	1542	0
bin	1544	0
bin	1546	0
bin	1548	0
bin	1550	0
bin	1552	0
bin	1554	0
bin	1556	0
bin	1558	0
bin	1560	2
bin	1562	0
bin	1564	0
bin	1566	0
bin	1568	0
bin	1570	0
bin	1572	0
bin	1574	0
bin	1576	0
bin	1578	0
bin	1580	1
bin	1582	0
bin	1584	0
bin	1586	0
bin	1588	0
bin	1590	1
bin	1592	0
bin	1594	0
bin	1596	0
bin	1598	0
bin	1600	0
bin	1602	0
bin	1604	0
bin	1606	0
bin	1608	0
bin	1610	0
bin	1612	0
bin	1614	0
scalar Net5.rte[4].queue[1] busy:timeavg 0.0028992080693315
attr interpolationmode sample-hold
attr title "server busy state, timeavg"
scalar Net5.rte[4].queue[1] qlen:timeavg 0.0013412706370869
attr interpolationmode sample-hold
attr title "queue length, timeavg"
scalar Net5.rte[4].queue[1] qlen:max 3
attr interpolationmode sample-hold
attr title "queue length, max"
scalar Net5.rte[4].queue[1] drop:count 0
attr interpolationmode none
attr title "dropped packet byte length, count"
attr unit bytes
scalar Net5.rte[4].queue[1] drop:sum 0
attr interpolationmode none
attr title "dropped packet byte length, sum"
attr unit bytes
scalar Net5.rte[4].queue[2] rxBytes:count 122
attr interpolationmode none
attr title "received packet byte length, count"
attr unit bytes
scalar Net5.rte[4].queue[2] rxBytes:sum 183420
attr interpolationmode none
attr title "received packet byte length, sum"
attr unit bytes
statistic Net5.rte[4].queue[2] rxBytes:histogram
field count 122
field mean 1503.4426229508
field stddev 13.408427829725
field min 1500
field max 1580
field sum 183420
field sqrsum 275783200
attr interpolationmode none
attr title "received packet byte length, histogram"
attr unit bytes
bin	-inf	0
bin	1480	0
bin	1482	0
bin	1484	0
bin	1486	0
bin	1488	0
bin	1490	0
bin	1492	0
bin	1494	0
bin	1496	0
bin	1498	0
bin	1500	112
bin	1502	0
bin	1504	0
bin	1506	0
bin	1508	0
bin	1510	1
bin	1512	0
bin	1514	0
bin	1516	0
bin	1518	0
bin	1520	2
bin	1522	0
bin	1524	0
bin	1526	0
bin	1528	0
bin	1530	2
bin	1532	0
bin	1534	0
bin	1536	0
bin	1538	0
bin	1540	1
bin	1542	0
bin	1544	0
bin	1546	0
bin	1548	0
bin	1550	1
bin	1552	0
bin	1554	0
bin	1556	0
bin	1558	0
bin	1560	1
bin	1562	0
bin	1564	0
bin	1566	0
bin	1568	0
bin	1570	0
bin	1572	0
bin	1574	0
bin	1576	0
bin	1578	0
bin	1580	2
bin	1582	0
bin	1584	0
bin	1586	0
bin	1588	0
bin	1590	0
bin	1592	0
bin	1594	0
bin	1596	0
bin	1598	0
bin	1600	0
scalar Net5.rte[4].queue[2] txBytes:count 175
attr interpolationmode none
attr title "transmitting packet byte length, count"
attr unit bytes
scalar Net5.rte[4].queue[2] txBytes:sum 262780
attr interpolationmode none
attr title "transmitting packet byte length, sum"
attr unit bytes
statistic Net5.rte[4].queue[2] txBytes:histogram
field count 175
field mean 1501.6
field stddev 10.325729497482
field min 1500
field max 1590
field sum 262780
field sqrsum 394609000
attr interpolationmode none
attr title "transmitting packet byte length, histogram"
attr unit bytes
bin	-inf	0
bin	1499	170
bin	1501	0
bin	1503	0
bin	1505	0
bin	1507	0
bin	1509	0
bin	1511	0
bin	1513	0
bin	1515	0
bin	1517	0
bin	1519	1
bin	1521	0
bin	1523	0
bin	1525	0
bin	1527	0
bin	1529	0
bin	1531	0
bin	1533	0
bin	1535	0
bin	1537	0
bin	1539	1
bin	1541	0
bin	1543	0
bin	1545	0
bin	1547	0
bin	1549	1
bin	1551	0
bin	1553	0
bin	1555	0
bin	1557	0
bin	1559	0
bin	1561	0
bin	1563	0
bin	1565	0
bin	1567	0
bin	1569	0
bin	1571	0
bin	1573	0
bin	1575	0
bin	1577	0
bin	1579	1
bin	1581	0
bin	1583	0
bin	1585	0
bin	1587	0
bin	1589	1
bin	1591	0
scalar Net5.rte[4].queue[2] busy:timeavg 0.0060249418463636
attr interpolationmode sample-hold
attr title "server busy state, timeavg"
scalar Net5.rte[4].queue[2] qlen:timeavg 0.0044021190140287
attr interpolationmode sample-hold
attr title "queue length, timeavg"
scalar Net5.rte[4].queue[2] qlen:max 5
attr interpolationmode sample-hold
attr title "queue length, max"
scalar Net5.rte[4].queue[2] drop:count 0
attr interpolationmode none
attr title "dropped packet byte length, count"
attr unit bytes
scalar Net5.rte[4].queue[2] drop:sum 0
attr interpolationmode none
attr title "dropped packet byte length, sum"
attr unit bytes
scalar Net5.rte[5].app hopCount:mean 1.5818181818182
attr interpolationmode none
attr title "hop count of arrived packets, mean"
scalar Net5.rte[5].app hopCount:max 2
attr interpolationmode none
attr title "hop count of arrived packets, max"
scalar Net5.rte[5].app endToEndDelay:mean 0.16475979798109
attr interpolationmode none
attr title "end-to-end delay of arrived packets, mean"
attr unit s
scalar Net5.rte[5].app endToEndDelay:max 0.211666666669
attr interpolationmode none
attr title "end-to-end delay of arrived packets, max"
attr unit s
statistic Net5.rte[5].routing outputIf:histogram
field count 619
field mean 0.89660743134087
field stddev 1.3590062019606
field min -1
field max 3
field sum 555
field sqrsum 1639
attr interpolationmode none
attr title "output interface for each routed packet, histogram"
bin	-inf	0
bin	-2	0
bin	-1	110
bin	0	169
bin	1	122
bin	2	111
bin	3	107
bin	4	0
scalar Net5.rte[5].routing drop:count 0
attr interpolationmode none
attr title "dropped packet byte length, count"
attr unit bytes
scalar Net5.rte[5].routing drop:sum 0
attr interpolationmode none
attr title "dropped packet byte length, sum"
attr unit bytes
scalar Net5.rte[5].queue[0] rxBytes:count 153
attr interpolationmode none
attr title "received packet byte length, count"
attr unit bytes
scalar Net5.rte[5].queue[0] rxBytes:sum 229620
attr interpolationmode none
attr title "received packet byte length, sum"
attr unit bytes
statistic Net5.rte[5].queue[0] rxBytes:histogram
field count 153
field mean 1500.7843137255
field stddev 5.9082248385687
field min 1500
field max 1560
field sum 229620
field sqrsum 344615400
attr interpolationmode none
attr title "received packet byte length, histogram"
attr unit bytes
bin	-inf	0
bin	1492	0
bin	1493	0
bin	1494	0
bin	1495	0
bin	1496	0
bin	1497	0
bin	1498	0
bin	1499	0
bin	1500	150
bin	1501	0
bin	1502	0
bin	1503	0
bin	1504	0
bin	1505	0
bin	1506	0
bin	1507	0
bin	1508	0
bin	1509	0
bin	1510	0
bin	1511	0
bin	1512	0
bin	1513	0
bin	1514	0
bin	1515	0
bin	1516	0
bin	1517	0
bin	1518	0
bin	1519	0
bin	1520	0
bin	1521	0
bin	1522	0
bin	1523	0
bin	1524	0
bin	1525	0
bin	1526	0
bin	1527	0
bin	1528	0
bin	1529	0
bin	1530	2
bin	1531	0
bin	1532	0
bin	1533	0
bin	1534	0
bin	1535	0
bin	1536	0
bin	1537	0
bin	1538	0
bin	1539	0
bin	1540	0
bin	1541	0
bin	1542	0
bin	1543	0
bin	1544	0
bin	1545	0
bin	1546	0
bin	1547	0
bin	1548	0
bin	1549	0
bin	1550	0
bin	1551	0
bin	1552	0
bin	1553	0
bin	1554	0
bin	1555	0
bin	1556	0
bin	1557	0
bin	1558	0
bin	1559	0
bin	1560	1
bin	1561	0
scalar Net5.rte[5].queue[0] txBytes:count 169
attr interpolationmode none
attr title "transmitting packet byte length, count"
attr unit bytes
scalar Net5.rte[5].queue[0] txBytes:sum 253960
attr interpolationmode none
attr title "transmitting packet byte length, sum"
attr unit bytes
statistic Net5.rte[5].queue[0] txBytes:histogram
field count 169
field mean 1502.7218934911
field stddev 14.749481224545
field min 1500
field max 1600
field sum 253960
field sqrsum 381667800
attr interpolationmode none
attr title "transmitting packet byte length, histogram"
attr unit bytes
bin	-inf	0
bin	1499	163
bin	1501	0
bin	1503	0
bin	1505	0
bin	1507	0
bin	1509	0
bin	1511	0
bin	1513	0
bin	1515	0
bin	1517	0
bin	1519	0
bin	1521	0
bin	1523	0
bin	1525	0
bin	1527	0
bin	1529	0
bin	1531	0
bin	1533	0
bin	1535	0
bin	1537	0
bin	1539	1
bin	1541	0
bin	1543	0
bin	1545	0
bin	1547	0
bin	1549	0
bin	1551	0
bin	1553	0
bin	1555	0
bin	1557	0
bin	1559	1
bin	1561	0
bin	1563	0
bin	1565	0
bin	1567	0
bin	1569	0
bin	1571	0
bin	1573	0
bin	1575	0
bin	1577	0
bin	1579	1
bin	1581	0
bin	1583	0
bin	1585	0
bin	1587	0
bin	1589	2
bin	1591	0
bin	1593	0
bin	1595	0
bin	1597	0
bin	1599	1
bin	1601	0
scalar Net5.rte[5].queue[0] busy:timeavg 0.0058227195041558
attr interpolationmode sample-hold
attr title "server busy state, timeavg"
scalar Net5.rte[5].queue[0] qlen:timeavg 0.0033703723701157
attr interpolationmode sample-hold
attr title "queue length, timeavg"
scalar Net5.rte[5].queue[0] qlen:max 4
attr interpolationmode sample-hold
attr title "queue length, max"
scalar Net5.rte[5].queue[0] drop:count 0
attr interpolationmode none
attr title "dropped packet byte length, count"
attr unit bytes
scalar Net5.rte[5].queue[0] drop:sum 0
attr interpolationmode none
attr title "dropped packet byte length, sum"
attr unit bytes
scalar Net5.rte[5].queue[1] rxBytes:count 175
attr interpolationmode none
attr title "received packet byte length, count"
attr unit bytes
scalar Net5.rte[5].queue[1] rxBytes:sum 262780
attr interpolationmode none
attr title "received packet byte length, sum"
attr unit bytes
statistic Net5.rte[5].queue[1] rxBytes:histogram
field count 175
field mean 1501.6
field stddev 10.325729497482
field min 1500
field max 1590
field sum 262780
field sqrsum 394609000
attr interpolationmode none
attr title "received packet byte length, histogram"
attr unit bytes
bin	-inf	0
bin	1499	170
bin	1501	0
bin	1503	0
bin	1505	0
bin	1507	0
bin	1509	0
bin	1511	0
bin	1513	0
bin	1515	0
bin	1517	0
bin	1519	1
bin	1521	0
bin	1523	0
bin	1525	0
bin	1527	0
bin	1529	0
bin	1531	0
bin	1533	0
bin	1535	0
bin	1537	0
bin	1539	1
bin	1541	0
bin	1543	0
bin	1545	0
bin	1547	0
bin	1549	1
bin	1551	0
bin	1553	0
bin	1555	0
bin	1557	0
bin	1559	0
bin	1561	0
bin	1563	0
bin	1565	0
bin	1567	0
bin	1569	0
bin	1571	0
bin	1573	0
bin	1575	0
bin	1577	0
bin	1579	1
bin	1581	0
bin	1583	0
bin	1585	0
bin	1587	0
bin	1589	1
bin	1591	0
scalar Net5.rte[5].queue[1] txBytes:count 122
attr interpolationmode none
attr title "transmitting packet byte length, count"
attr unit bytes
scalar Net5.rte[5].queue[1] txBytes:sum 183420
attr interpolationmode none
attr title "transmitting packet byte length, sum"
attr unit bytes
statistic Net5.rte[5].queue[1] txBytes:histogram
field count 122
field mean 1503.4426229508
field stddev 13.408427829725
field min 1500
field max 1580
field sum 183420
field sqrsum 275783200
attr interpolationmode none
attr title "transmitting packet byte length, histogram"
attr unit bytes
bin	-inf	0
bin	1480	0
bin	1482	0
bin	1484	0
bin	1486	0
bin	1488	0
bin	1490	0
bin	1492	0
bin	1494	0
bin	1496	0
bin	1498	0
bin	1500	112
bin	1502	0
bin	1504	0
bin	1506	0
bin	1508	0
bin	1510	1
bin	1512	0
bin	1514	0
bin	1516	0
bin	1518	0
bin	1520	2
bin	1522	0
bin	1524	0
bin	1526	0
bin	1528	0
bin	1530	2
bin	1532	0
bin	1534	0
bin	1536	0
bin	1538	0
bin	1540	1
bin	1542	0
bin	1544	0
bin	1546	0
bin	1548	0
bin	1550	1
bin	1552	0
bin	1554	0
bin	1556	0
bin	1558	0
bin	1560	1
bin	1562	0
bin	1564	0
bin	1566	0
bin	1568	0
bin	1570	0
bin	1572	0
bin	1574	0
bin	1576	0
bin	1578	0
bin	1580	2
bin	1582	0
bin	1584	0
bin	1586	0
bin	1588	0
bin	1590	0
bin	1592	0
bin	1594	0
bin	1596	0
bin	1598	0
bin	1600	0
scalar Net5.rte[5].queue[1] busy:timeavg 0.0042053993205323
attr interpolationmode sample-hold
attr title "server busy state, timeavg"
scalar Net5.rte[5].queue[1] qlen:timeavg 0.0012724875274927
attr interpolationmode sample-hold
attr title "queue length, timeavg"
scalar Net5.rte[5].queue[1] qlen:max 2
attr interpolationmode sample-hold
attr title "queue length, max"
scalar Net5.rte[5].queue[1] drop:count 0
attr interpolationmode none
attr title "dropped packet byte length, count"
attr unit bytes
scalar Net5.rte[5].queue[1] drop:sum 0
attr interpolationmode none
attr title "dropped packet byte length, sum"
attr unit bytes
scalar Net5.rte[5].queue[2] rxBytes:count 112
attr interpolationmode none
attr title "received packet byte length, count"
attr unit bytes
scalar Net5.rte[5].queue[2] rxBytes:sum 168320
attr interpolationmode none
attr title "received packet byte length, sum"
attr unit bytes
statistic Net5.rte[5].queue[2] rxBytes:histogram
field count 112
field mean 1502.8571428571
field stddev 13.651292479383
field min 1500
field max 1590
field sum 168320
field sqrsum 252981600
attr interpolationmode none
attr title "received packet byte length, histogram"
attr unit bytes
bin	-inf	0
bin	1476	0
bin	1478	0
bin	1480	0
bin	1482	0
bin	1484	0
bin	1486	0
bin	1488	0
bin	1490	0
bin	1492	0
bin	1494	0
bin	1496	0
bin	1498	0
bin	1500	106
bin	1502	0
bin	1504	0
bin	1506	0
bin	1508	0
bin	1510	1
bin	1512	0
bin	1514	0
bin	1516	0
bin	1518	0
bin	1520	0
bin	1522	0
bin	1524	0
bin	1526	0
bin	1528	0
bin	1530	1
bin	1532	0
bin	1534	0
bin	1536	0
bin	1538	0
bin	1540	0
bin	1542	0
bin	1544	0
bin	1546	0
bin	1548	0
bin	1550	1
bin	1552	0
bin	1554	0
bin	1556	0
bin	1558	0
bin	1560	1
bin	1562	0
bin	1564	0
bin	1566	0
bin	1568	0
bin	1570	0
bin	1572	0
bin	1574	0
bin	1576	0
bin	1578	0
bin	1580	1
bin	1582	0
bin	1584	0
bin	1586	0
bin	1588	0
bin	1590	1
bin	1592	0
bin	1594	0
bin	1596	0
bin	1598	0
bin	1600	0
bin	1602	0
bin	1604	0
bin	1606	0
bin	1608	0
bin	1610	0
bin	1612	0
bin	1614	0
scalar Net5.rte[5].queue[2] txBytes:count 111
attr interpolationmode none
attr title "transmitting packet byte length, count"
attr unit bytes
scalar Net5.rte[5].queue[2] txBytes:sum 166570
attr interpolationmode none
attr title "transmitting packet byte length, sum"
attr unit bytes
statistic Net5.rte[5].queue[2] txBytes:histogram
field count 111
field mean 1500.6306306306
field stddev 5.0953239310464
field min 1500
field max 1550
field sum 166570
field sqrsum 249962900
attr interpolationmode none
attr title "transmitting packet byte length, histogram"
attr unit bytes
bin	-inf	0
bin	1487	0
bin	1488	0
bin	1489	0
bin	1490	0
bin	1491	0
bin	1492	0
bin	1493	0
bin	1494	0
bin	1495	0
bin	1496	0
bin	1497	0
bin	1498	0
bin	1499	0
bin	1500	109
bin	1501	0
bin	1502	0
bin	1503	0
bin	1504	0
bin	1505	0
bin	1506	0
bin	1507	0
bin	1508	0
bin	1509	0
bin	1510	0
bin	1511	0
bin	1512	0
bin	1513	0
bin	1514	0
bin	1515	0
bin	1516	0
bin	1517	0
bin	1518	0
bin	1519	0
bin	1520	1
bin	1521	0
bin	1522	0
bin	1523	0
bin	1524	0
bin	1525	0
bin	1526	0
bin	1527	0
bin	1528	0
bin	1529	0
bin	1530	0
bin	1531	0
bin	1532	0
bin	1533	0
bin	1534	0
bin	1535	0
bin	1536	0
bin	1537	0
bin	1538	0
bin	1539	0
bin	1540	0
bin	1541	0
bin	1542	0
bin	1543	0
bin	1544	0
bin	1545	0
bin	1546	0
bin	1547	0
bin	1548	0
bin	1549	0
bin	1550	1
bin	1551	0
bin	1552	0
bin	1553	0
bin	1554	0
bin	1555	0
bin	1556	0
bin	1557	0
bin	1558	0
bin	1559	0
bin	1560	0
bin	1561	0
bin	1562	0
bin	1563	0
scalar Net5.rte[5].queue[2] busy:timeavg 0.0038190675216855
attr interpolationmode sample-hold
attr title "server busy state, timeavg"
scalar Net5.rte[5].queue[2] qlen:timeavg 0
attr interpolationmode sample-hold
attr title "queue length, timeavg"
scalar Net5.rte[5].queue[2] qlen:max 0
attr interpolationmode sample-hold
attr title "queue length, max"
scalar Net5.rte[5].queue[2] drop:count 0
attr interpolationmode none
attr title "dropped packet byte length, count"
attr unit bytes
scalar Net5.rte[5].queue[2] drop:sum 0
attr interpolationmode none
attr title "dropped packet byte length, sum"
attr unit bytes
scalar Net5.rte[5].queue[3] rxBytes:count 58
attr interpolationmode none
attr title "received packet byte length, count"
attr unit bytes
scalar Net5.rte[5].queue[3] rxBytes:sum 87070
attr interpolationmode none
attr title "received packet byte length, sum"
attr unit bytes
statistic Net5.rte[5].queue[3] rxBytes:histogram
field count 58
field mean 1501.2068965517
field stddev 5.9464234295118
field min 1500
field max 1540
field sum 87070
field sqrsum 130712100
attr interpolationmode none
attr title "received packet byte length, histogram"
attr unit bytes
bin	-inf	0
bin	1490	0
bin	1491	0
bin	1492	0
bin	1493	0
bin	1494	0
bin	1495	0
bin	1496	0
bin	1497	0
bin	1498	0
bin	1499	0
bin	1500	55
bin	1501	0
bin	1502	0
bin	1503	0
bin	1504	0
bin	1505	0
bin	1506	0
bin	1507	0
bin	1508	0
bin	1509	0
bin	1510	1
bin	1511	0
bin	1512	0
bin	1513	0
bin	1514	0
bin	1515	0
bin	1516	0
bin	1517	0
bin	1518	0
bin	1519	0
bin	1520	1
bin	1521	0
bin	1522	0
bin	1523	0
bin	1524	0
bin	1525	0
bin	1526	0
bin	1527	0
bin	1528	0
bin	1529	0
bin	1530	0
bin	1531	0
bin	1532	0
bin	1533	0
bin	1534	0
bin	1535	0
bin	1536	0
bin	1537	0
bin	1538	0
bin	1539	0
bin	1540	1
bin	1541	0
bin	1542	0
bin	1543	0
bin	1544	0
bin	1545	0
bin	1546	0
bin	1547	0
bin	1548	0
bin	1549	0
bin	1550	0
scalar Net5.rte[5].queue[3] txBytes:count 107
attr interpolationmode none
attr title "transmitting packet byte length, count"
attr unit bytes
scalar Net5.rte[5].queue[3] txBytes:sum 160590
attr interpolationmode none
attr title "transmitting packet byte length, sum"
attr unit bytes
statistic Net5.rte[5].queue[3] txBytes:histogram
field count 107
field mean 1500.8411214953
field stddev 8.7006284014058
field min 1500
field max 1590
field sum 160590
field sqrsum 241028100
attr interpolationmode none
attr title "transmitting packet byte length, histogram"
attr unit bytes
bin	-inf	0
bin	1499	106
bin	1501	0
bin	1503	0
bin	1505	0
bin	1507	0
bin	1509	0
bin	1511	0
bin	1513	0
bin	1515	0
bin	1517	0
bin	1519	0
bin	1521	0
bin	1523	0
bin	1525	0
bin	1527	0
bin	1529	0
bin	1531	0
bin	1533	0
bin	1535	0
bin	1537	0
bin	1539	0
bin	1541	0
bin	1543	0
bin	1545	0
bin	1547	0
bin	1549	0
bin	1551	0
bin	1553	0
bin	1555	0
bin	1557	0
bin	1559	0
bin	1561	0
bin	1563	0
bin	1565	0
bin	1567	0
bin	1569	0
bin	1571	0
bin	1573	0
bin	1575	0
bin	1577	0
bin	1579	0
bin	1581	0
bin	1583	0
bin	1585	0
bin	1587	0
bin	1589	1
bin	1591	0
scalar Net5.rte[5].queue[3] busy:timeavg 0.003681959856577
attr interpolationmode sample-hold
attr title "server busy state, timeavg"
scalar Net5.rte[5].queue[3] qlen:timeavg 3.4391554797099e-005
attr interpolationmode sample-hold
attr title "queue length, timeavg"
scalar Net5.rte[5].queue[3] qlen:max 1
attr interpolationmode sample-hold
attr title "queue length, max"
scalar Net5.rte[5].queue[3] drop:count 0
attr interpolationmode none
attr title "dropped packet byte length, count"
attr unit bytes
scalar Net5.rte[5].queue[3] drop:sum 0
attr interpolationmode none
attr title "dropped packet byte length, sum"
attr unit bytes
scalar Net5.rte[6].app hopCount:mean 2.5315315315315
attr interpolationmode none
attr title "hop count of arrived packets, mean"
scalar Net5.rte[6].app hopCount:max 3
attr interpolationmode none
attr title "hop count of arrived packets, max"
scalar Net5.rte[6].app endToEndDelay:mean 0.26163873874041
attr interpolationmode none
attr title "end-to-end delay of arrived packets, mean"
attr unit s
scalar Net5.rte[6].app endToEndDelay:max 0.315000000003
attr interpolationmode none
attr title "end-to-end delay of arrived packets, max"
attr unit s
statistic Net5.rte[6].routing outputIf:histogram
field count 223
field mean -0.49775784753363
field stddev 0.50111982223135
field min -1
field max 0
field sum -111
field sqrsum 111
attr interpolationmode none
attr title "output interface for each routed packet, histogram"
bin	-inf	0
bin	-2	0
bin	-1	111
bin	0	112
bin	1	0
scalar Net5.rte[6].routing drop:count 0
attr interpolationmode none
attr title "dropped packet byte length, count"
attr unit bytes
scalar Net5.rte[6].routing drop:sum 0
attr interpolationmode none
attr title "dropped packet byte length, sum"
attr unit bytes
scalar Net5.rte[6].queue[0] rxBytes:count 111
attr interpolationmode none
attr title "received packet byte length, count"
attr unit bytes
scalar Net5.rte[6].queue[0] rxBytes:sum 166570
attr interpolationmode none
attr title "received packet byte length, sum"
attr unit bytes
statistic Net5.rte[6].queue[0] rxBytes:histogram
field count 111
field mean 1500.6306306306
field stddev 5.0953239310464
field min 1500
field max 1550
field sum 166570
field sqrsum 249962900
attr interpolationmode none
attr title "received packet byte length, histogram"
attr unit bytes
bin	-inf	0
bin	1487	0
bin	1488	0
bin	1489	0
bin	1490	0
bin	1491	0
bin	1492	0
bin	1493	0
bin	1494	0
bin	1495	0
bin	1496	0
bin	1497	0
bin	1498	0
bin	1499	0
bin	1500	109
bin	1501	0
bin	1502	0
bin	1503	0
bin	1504	0
bin	1505	0
bin	1506	0
bin	1507	0
bin	1508	0
bin	1509	0
bin	1510	0
bin	1511	0
bin	1512	0
bin	1513	0
bin	1514	0
bin	1515	0
bin	1516	0
bin	1517	0
bin	1518	0
bin	1519	0
bin	1520	1
bin	1521	0
bin	1522	0
bin	1523	0
bin	1524	0
bin	1525	0
bin	1526	0
bin	1527	0
bin	1528	0
bin	1529	0
bin	1530	0
bin	1531	0
bin	1532	0
bin	1533	0
bin	1534	0
bin	1535	0
bin	1536	0
bin	1537	0
bin	1538	0
bin	1539	0
bin	1540	0
bin	1541	0
bin	1542	0
bin	1543	0
bin	1544	0
bin	1545	0
bin	1546	0
bin	1547	0
bin	1548	0
bin	1549	0
bin	1550	1
bin	1551	0
bin	1552	0
bin	1553	0
bin	1554	0
bin	1555	0
bin	1556	0
bin	1557	0
bin	1558	0
bin	1559	0
bin	1560	0
bin	1561	0
bin	1562	0
bin	1563	0
scalar Net5.rte[6].queue[0] txBytes:count 112
attr interpolationmode none
attr title "transmitting packet byte length, count"
attr unit bytes
scalar Net5.rte[6].queue[0] txBytes:sum 168320
attr interpolationmode none
attr title "transmitting packet byte length, sum"
attr unit bytes
statistic Net5.rte[6].queue[0] txBytes:histogram
field count 112
field mean 1502.8571428571
field stddev 13.651292479383
field min 1500
field max 1590
field sum 168320
field sqrsum 252981600
attr interpolationmode none
attr title "transmitting packet byte length, histogram"
attr unit bytes
bin	-inf	0
bin	1476	0
bin	1478	0
bin	1480	0
bin	1482	0
bin	1484	0
bin	1486	0
bin	1488	0
bin	1490	0
bin	1492	0
bin	1494	0
bin	1496	0
bin	1498	0
bin	1500	106
bin	1502	0
bin	1504	0
bin	1506	0
bin	1508	0
bin	1510	1
bin	1512	0
bin	1514	0
bin	1516	0
bin	1518	0
bin	1520	0
bin	1522	0
bin	1524	0
bin	1526	0
bin	1528	0
bin	1530	1
bin	1532	0
bin	1534	0
bin	1536	0
bin	1538	0
bin	1540	0
bin	1542	0
bin	1544	0
bin	1546	0
bin	1548	0
bin	1550	1
bin	1552	0
bin	1554	0
bin	1556	0
bin	1558	0
bin	1560	1
bin	1562	0
bin	1564	0
bin	1566	0
bin	1568	0
bin	1570	0
bin	1572	0
bin	1574	0
bin	1576	0
bin	1578	0
bin	1580	1
bin	1582	0
bin	1584	0
bin	1586	0
bin	1588	0
bin	1590	1
bin	1592	0
bin	1594	0
bin	1596	0
bin	1598	0
bin	1600	0
bin	1602	0
bin	1604	0
bin	1606	0
bin	1608	0
bin	1610	0
bin	1612	0
bin	1614	0
scalar Net5.rte[6].queue[0] busy:timeavg 0.0038591910022649
attr interpolationmode sample-hold
attr title "server busy state, timeavg"
scalar Net5.rte[6].queue[0] qlen:timeavg 0.013619055699651
attr interpolationmode sample-hold
attr title "queue length, timeavg"
scalar Net5.rte[6].queue[0] qlen:max 9
attr interpolationmode sample-hold
attr title "queue length, max"
scalar Net5.rte[6].queue[0] drop:count 0
attr interpolationmode none
attr title "dropped packet byte length, count"
attr unit bytes
scalar Net5.rte[6].queue[0] drop:sum 0
attr interpolationmode none
attr title "dropped packet byte length, sum"
attr unit bytes
scalar Net5.rte[7].app hopCount:mean 2.4299065420561
attr interpolationmode none
attr title "hop count of arrived packets, mean"
scalar Net5.rte[7].app hopCount:max 3
attr interpolationmode none
attr title "hop count of arrived packets, max"
scalar Net5.rte[7].app endToEndDelay:mean 0.25311619937897
attr interpolationmode none
attr title "end-to-end delay of arrived packets, mean"
attr unit s
scalar Net5.rte[7].app endToEndDelay:max 0.31666666667
attr interpolationmode none
attr title "end-to-end delay of arrived packets, max"
attr unit s
statistic Net5.rte[7].routing outputIf:histogram
field count 165
field mean -0.64848484848485
field stddev 0.47889685999486
field min -1
field max 0
field sum -107
field sqrsum 107
attr interpolationmode none
attr title "output interface for each routed packet, histogram"
bin	-inf	0
bin	-2	0
bin	-1	107
bin	0	58
bin	1	0
scalar Net5.rte[7].routing drop:count 0
attr interpolationmode none
attr title "dropped packet byte length, count"
attr unit bytes
scalar Net5.rte[7].routing drop:sum 0
attr interpolationmode none
attr title "dropped packet byte length, sum"
attr unit bytes
scalar Net5.rte[7].queue[0] rxBytes:count 107
attr interpolationmode none
attr title "received packet byte length, count"
attr unit bytes
scalar Net5.rte[7].queue[0] rxBytes:sum 160590
attr interpolationmode none
attr title "received packet byte length, sum"
attr unit bytes
statistic Net5.rte[7].queue[0] rxBytes:histogram
field count 107
field mean 1500.8411214953
field stddev 8.7006284014058
field min 1500
field max 1590
field sum 160590
field sqrsum 241028100
attr interpolationmode none
attr title "received packet byte length, histogram"
attr unit bytes
bin	-inf	0
bin	1499	106
bin	1501	0
bin	1503	0
bin	1505	0
bin	1507	0
bin	1509	0
bin	1511	0
bin	1513	0
bin	1515	0
bin	1517	0
bin	1519	0
bin	1521	0
bin	1523	0
bin	1525	0
bin	1527	0
bin	1529	0
bin	1531	0
bin	1533	0
bin	1535	0
bin	1537	0
bin	1539	0
bin	1541	0
bin	1543	0
bin	1545	0
bin	1547	0
bin	1549	0
bin	1551	0
bin	1553	0
bin	1555	0
bin	1557	0
bin	1559	0
bin	1561	0
bin	1563	0
bin	1565	0
bin	1567	0
bin	1569	0
bin	1571	0
bin	1573	0
bin	1575	0
bin	1577	0
bin	1579	0
bin	1581	0
bin	1583	0
bin	1585	0
bin	1587	0
bin	1589	1
bin	1591	0
scalar Net5.rte[7].queue[0] txBytes:count 58
attr interpolationmode none
attr title "transmitting packet byte length, count"
attr unit bytes
scalar Net5.rte[7].queue[0] txBytes:sum 87070
attr interpolationmode none
attr title "transmitting packet byte length, sum"
attr unit bytes
statistic Net5.rte[7].queue[0] txBytes:histogram
field count 58
field mean 1501.2068965517
field stddev 5.9464234295118
field min 1500
field max 1540
field sum 87070
field sqrsum 130712100
attr interpolationmode none
attr title "transmitting packet byte length, histogram"
attr unit bytes
bin	-inf	0
bin	1490	0
bin	1491	0
bin	1492	0
bin	1493	0
bin	1494	0
bin	1495	0
bin	1496	0
bin	1497	0
bin	1498	0
bin	1499	0
bin	1500	55
bin	1501	0
bin	1502	0
bin	1503	0
bin	1504	0
bin	1505	0
bin	1506	0
bin	1507	0
bin	1508	0
bin	1509	0
bin	1510	1
bin	1511	0
bin	1512	0
bin	1513	0
bin	1514	0
bin	1515	0
bin	1516	0
bin	1517	0
bin	1518	0
bin	1519	0
bin	1520	1
bin	1521	0
bin	1522	0
bin	1523	0
bin	1524	0
bin	1525	0
bin	1526	0
bin	1527	0
bin	1528	0
bin	1529	0
bin	1530	0
bin	1531	0
bin	1532	0
bin	1533	0
bin	1534	0
bin	1535	0
bin	1536	0
bin	1537	0
bin	1538	0
bin	1539	0
bin	1540	1
bin	1541	0
bin	1542	0
bin	1543	0
bin	1544	0
bin	1545	0
bin	1546	0
bin	1547	0
bin	1548	0
bin	1549	0
bin	1550	0
scalar Net5.rte[7].queue[0] busy:timeavg 0.0019963151174392
attr interpolationmode sample-hold
attr title "server busy state, timeavg"
scalar Net5.rte[7].queue[0] qlen:timeavg 0.0068095278498256
attr interpolationmode sample-hold
attr title "queue length, timeavg"
scalar Net5.rte[7].queue[0] qlen:max 9
attr interpolationmode sample-hold
attr title "queue length, max"
scalar Net5.rte[7].queue[0] drop:count 0
attr interpolationmode none
attr title "dropped packet byte length, count"
attr unit bytes
scalar Net5.rte[7].queue[0] drop:sum 0
attr interpolationmode none
attr title "dropped packet byte length, sum"
attr unit bytes
scalar Net5.rte[8].app hopCount:mean 1.8715596330275
attr interpolationmode none
attr title "hop count of arrived packets, mean"
scalar Net5.rte[8].app hopCount:max 3
attr interpolationmode none
attr title "hop count of arrived packets, max"
scalar Net5.rte[8].app endToEndDelay:mean 0.19525229357957
attr interpolationmode none
attr title "end-to-end delay of arrived packets, mean"
attr unit s
scalar Net5.rte[8].app endToEndDelay:max 0.318333333337
attr interpolationmode none
attr title "end-to-end delay of arrived packets, max"
attr unit s
statistic Net5.rte[8].routing outputIf:histogram
field count 308
field mean -0.048701298701299
field stddev 0.811700833272
field min -1
field max 1
field sum -15
field sqrsum 203
attr interpolationmode none
attr title "output interface for each routed packet, histogram"
bin	-inf	0
bin	-2	0
bin	-1	109
bin	0	105
bin	1	94
bin	2	0
scalar Net5.rte[8].routing drop:count 0
attr interpolationmode none
attr title "dropped packet byte length, count"
attr unit bytes
scalar Net5.rte[8].routing drop:sum 0
attr interpolationmode none
attr title "dropped packet byte length, sum"
attr unit bytes
scalar Net5.rte[8].queue[0] rxBytes:count 96
attr interpolationmode none
attr title "received packet byte length, count"
attr unit bytes
scalar Net5.rte[8].queue[0] rxBytes:sum 144320
attr interpolationmode none
attr title "received packet byte length, sum"
attr unit bytes
statistic Net5.rte[8].queue[0] rxBytes:histogram
field count 96
field mean 1503.3333333333
field stddev 18.103019036772
field min 1500
field max 1640
field sum 144320
field sqrsum 216992200
attr interpolationmode none
attr title "received packet byte length, histogram"
attr unit bytes
bin	-inf	0
bin	1499	92
bin	1502	0
bin	1505	0
bin	1508	0
bin	1511	0
bin	1514	0
bin	1517	0
bin	1520	0
bin	1523	0
bin	1526	0
bin	1529	1
bin	1532	0
bin	1535	0
bin	1538	0
bin	1541	0
bin	1544	0
bin	1547	0
bin	1550	0
bin	1553	0
bin	1556	0
bin	1559	1
bin	1562	0
bin	1565	0
bin	1568	0
bin	1571	0
bin	1574	0
bin	1577	0
bin	1580	0
bin	1583	0
bin	1586	0
bin	1589	1
bin	1592	0
bin	1595	0
bin	1598	0
bin	1601	0
bin	1604	0
bin	1607	0
bin	1610	0
bin	1613	0
bin	1616	0
bin	1619	0
bin	1622	0
bin	1625	0
bin	1628	0
bin	1631	0
bin	1634	0
bin	1637	0
bin	1640	1
bin	1643	0
scalar Net5.rte[8].queue[0] txBytes:count 105
attr interpolationmode none
attr title "transmitting packet byte length, count"
attr unit bytes
scalar Net5.rte[8].queue[0] txBytes:sum 157640
attr interpolationmode none
attr title "transmitting packet byte length, sum"
attr unit bytes
statistic Net5.rte[8].queue[0] txBytes:histogram
field count 105
field mean 1501.3333333333
field stddev 8.3282035493298
field min 1500
field max 1580
field sum 157640
field sqrsum 236677400
attr interpolationmode none
attr title "transmitting packet byte length, histogram"
attr unit bytes
bin	-inf	0
bin	1495	0
bin	1496	0
bin	1497	0
bin	1498	0
bin	1499	0
bin	1500	100
bin	1501	0
bin	1502	0
bin	1503	0
bin	1504	0
bin	1505	0
bin	1506	0
bin	1507	0
bin	1508	0
bin	1509	0
bin	1510	2
bin	1511	0
bin	1512	0
bin	1513	0
bin	1514	0
bin	1515	0
bin	1516	0
bin	1517	0
bin	1518	0
bin	1519	0
bin	1520	2
bin	1521	0
bin	1522	0
bin	1523	0
bin	1524	0
bin	1525	0
bin	1526	0
bin	1527	0
bin	1528	0
bin	1529	0
bin	1530	0
bin	1531	0
bin	1532	0
bin	1533	0
bin	1534	0
bin	1535	0
bin	1536	0
bin	1537	0
bin	1538	0
bin	1539	0
bin	1540	0
bin	1541	0
bin	1542	0
bin	1543	0
bin	1544	0
bin	1545	0
bin	1546	0
bin	1547	0
bin	1548	0
bin	1549	0
bin	1550	0
bin	1551	0
bin	1552	0
bin	1553	0
bin	1554	0
bin	1555	0
bin	1556	0
bin	1557	0
bin	1558	0
bin	1559	0
bin	1560	0
bin	1561	0
bin	1562	0
bin	1563	0
bin	1564	0
bin	1565	0
bin	1566	0
bin	1567	0
bin	1568	0
bin	1569	0
bin	1570	0
bin	1571	0
bin	1572	0
bin	1573	0
bin	1574	0
bin	1575	0
bin	1576	0
bin	1577	0
bin	1578	0
bin	1579	0
bin	1580	1
bin	1581	0
scalar Net5.rte[8].queue[0] busy:timeavg 0.003614323132131
attr interpolationmode sample-hold
attr title "server busy state, timeavg"
scalar Net5.rte[8].queue[0] qlen:timeavg 0.0026825412741737
attr interpolationmode sample-hold
attr title "queue length, timeavg"
scalar Net5.rte[8].queue[0] qlen:max 4
attr interpolationmode sample-hold
attr title "queue length, max"
scalar Net5.rte[8].queue[0] drop:count 0
attr interpolationmode none
attr title "dropped packet byte length, count"
attr unit bytes
scalar Net5.rte[8].queue[0] drop:sum 0
attr interpolationmode none
attr title "dropped packet byte length, sum"
attr unit bytes
scalar Net5.rte[8].queue[1] rxBytes:count 102
attr interpolationmode none
attr title "received packet byte length, count"
attr unit bytes
scalar Net5.rte[8].queue[1] rxBytes:sum 153180
attr interpolationmode none
attr title "received packet byte length, sum"
attr unit bytes
statistic Net5.rte[8].queue[1] rxBytes:histogram
field count 102
field mean 1501.7647058824
field stddev 10.846522890937
field min 1500
field max 1590
field sum 153180
field sqrsum 230052200
attr interpolationmode none
attr title "received packet byte length, histogram"
attr unit bytes
bin	-inf	0
bin	1476	0
bin	1478	0
bin	1480	0
bin	1482	0
bin	1484	0
bin	1486	0
bin	1488	0
bin	1490	0
bin	1492	0
bin	1494	0
bin	1496	0
bin	1498	0
bin	1500	98
bin	1502	0
bin	1504	0
bin	1506	0
bin	1508	0
bin	1510	1
bin	1512	0
bin	1514	0
bin	1516	0
bin	1518	0
bin	1520	1
bin	1522	0
bin	1524	0
bin	1526	0
bin	1528	0
bin	1530	0
bin	1532	0
bin	1534	0
bin	1536	0
bin	1538	0
bin	1540	0
bin	1542	0
bin	1544	0
bin	1546	0
bin	1548	0
bin	1550	0
bin	1552	0
bin	1554	0
bin	1556	0
bin	1558	0
bin	1560	1
bin	1562	0
bin	1564	0
bin	1566	0
bin	1568	0
bin	1570	0
bin	1572	0
bin	1574	0
bin	1576	0
bin	1578	0
bin	1580	0
bin	1582	0
bin	1584	0
bin	1586	0
bin	1588	0
bin	1590	1
bin	1592	0
bin	1594	0
bin	1596	0
bin	1598	0
bin	1600	0
bin	1602	0
bin	1604	0
bin	1606	0
bin	1608	0
bin	1610	0
bin	1612	0
bin	1614	0
scalar Net5.rte[8].queue[1] txBytes:count 94
attr interpolationmode none
attr title "transmitting packet byte length, count"
attr unit bytes
scalar Net5.rte[8].queue[1] txBytes:sum 141190
attr interpolationmode none
attr title "transmitting packet byte length, sum"
attr unit bytes
statistic Net5.rte[8].queue[1] txBytes:histogram
field count 94
field mean 1502.0212765957
field stddev 15.280867736583
field min 1500
field max 1640
field sum 141190
field sqrsum 212092100
attr interpolationmode none
attr title "transmitting packet byte length, histogram"
attr unit bytes
bin	-inf	0
bin	1499	92
bin	1502	0
bin	1505	0
bin	1508	0
bin	1511	0
bin	1514	0
bin	1517	0
bin	1520	0
bin	1523	0
bin	1526	0
bin	1529	0
bin	1532	0
bin	1535	0
bin	1538	0
bin	1541	0
bin	1544	0
bin	1547	0
bin	1550	1
bin	1553	0
bin	1556	0
bin	1559	0
bin	1562	0
bin	1565	0
bin	1568	0
bin	1571	0
bin	1574	0
bin	1577	0
bin	1580	0
bin	1583	0
bin	1586	0
bin	1589	0
bin	1592	0
bin	1595	0
bin	1598	0
bin	1601	0
bin	1604	0
bin	1607	0
bin	1610	0
bin	1613	0
bin	1616	0
bin	1619	0
bin	1622	0
bin	1625	0
bin	1628	0
bin	1631	0
bin	1634	0
bin	1637	0
bin	1640	1
bin	1643	0
scalar Net5.rte[8].queue[1] busy:timeavg 0.0032371624145111
attr interpolationmode sample-hold
attr title "server busy state, timeavg"
scalar Net5.rte[8].queue[1] qlen:timeavg 0.0043333359044345
attr interpolationmode sample-hold
attr title "queue length, timeavg"
scalar Net5.rte[8].queue[1] qlen:max 5
attr interpolationmode sample-hold
attr title "queue length, max"
scalar Net5.rte[8].queue[1] drop:count 0
attr interpolationmode none
attr title "dropped packet byte length, count"
attr unit bytes
scalar Net5.rte[8].queue[1] drop:sum 0
attr interpolationmode none
attr title "dropped packet byte length, sum"
attr unit bytes
scalar Net5.rte[9].app hopCount:mean 1.8918918918919
attr interpolationmode none
attr title "hop count of arrived packets, mean"
scalar Net5.rte[9].app hopCount:max 3
attr interpolationmode none
attr title "hop count of arrived packets, max"
scalar Net5.rte[9].app endToEndDelay:mean 0.19722733784215
attr interpolationmode none
attr title "end-to-end delay of arrived packets, mean"
attr unit s
scalar Net5.rte[9].app endToEndDelay:max 0.320000000004
attr interpolationmode none
attr title "end-to-end delay of arrived packets, max"
attr unit s
statistic Net5.rte[9].routing outputIf:histogram
field count 212
field mean -0.25471698113208
field stddev 0.8549972506784
field min -1
field max 1
field sum -54
field sqrsum 168
attr interpolationmode none
attr title "output interface for each routed packet, histogram"
bin	-inf	0
bin	-2	0
bin	-1	111
bin	0	44
bin	1	57
bin	2	0
scalar Net5.rte[9].routing drop:count 0
attr interpolationmode none
attr title "dropped packet byte length, count"
attr unit bytes
scalar Net5.rte[9].routing drop:sum 0
attr interpolationmode none
attr title "dropped packet byte length, sum"
attr unit bytes
scalar Net5.rte[9].queue[0] rxBytes:count 54
attr interpolationmode none
attr title "received packet byte length, count"
attr unit bytes
scalar Net5.rte[9].queue[0] rxBytes:sum 81110
attr interpolationmode none
attr title "received packet byte length, sum"
attr unit bytes
statistic Net5.rte[9].queue[0] rxBytes:histogram
field count 54
field mean 1502.037037037
field stddev 12.495981184852
field min 1500
field max 1590
field sum 81110
field sqrsum 121838500
attr interpolationmode none
attr title "received packet byte length, histogram"
attr unit bytes
bin	-inf	0
bin	1476	0
bin	1478	0
bin	1480	0
bin	1482	0
bin	1484	0
bin	1486	0
bin	1488	0
bin	1490	0
bin	1492	0
bin	1494	0
bin	1496	0
bin	1498	0
bin	1500	52
bin	1502	0
bin	1504	0
bin	1506	0
bin	1508	0
bin	1510	0
bin	1512	0
bin	1514	0
bin	1516	0
bin	1518	0
bin	1520	1
bin	1522	0
bin	1524	0
bin	1526	0
bin	1528	0
bin	1530	0
bin	1532	0
bin	1534	0
bin	1536	0
bin	1538	0
bin	1540	0
bin	1542	0
bin	1544	0
bin	1546	0
bin	1548	0
bin	1550	0
bin	1552	0
bin	1554	0
bin	1556	0
bin	1558	0
bin	1560	0
bin	1562	0
bin	1564	0
bin	1566	0
bin	1568	0
bin	1570	0
bin	1572	0
bin	1574	0
bin	1576	0
bin	1578	0
bin	1580	0
bin	1582	0
bin	1584	0
bin	1586	0
bin	1588	0
bin	1590	1
bin	1592	0
bin	1594	0
bin	1596	0
bin	1598	0
bin	1600	0
bin	1602	0
bin	1604	0
bin	1606	0
bin	1608	0
bin	1610	0
bin	1612	0
bin	1614	0
scalar Net5.rte[9].queue[0] txBytes:count 44
attr interpolationmode none
attr title "transmitting packet byte length, count"
attr unit bytes
scalar Net5.rte[9].queue[0] txBytes:sum 66080
attr interpolationmode none
attr title "transmitting packet byte length, sum"
attr unit bytes
statistic Net5.rte[9].queue[0] txBytes:histogram
field count 44
field mean 1501.8181818182
field stddev 12.060453783112
field min 1500
field max 1580
field sum 66080
field sqrsum 99246400
attr interpolationmode none
attr title "transmitting packet byte length, histogram"
attr unit bytes
bin	-inf	0
bin	1480	0
bin	1482	0
bin	1484	0
bin	1486	0
bin	1488	0
bin	1490	0
bin	1492	0
bin	1494	0
bin	1496	0
bin	1498	0
bin	1500	43
bin	1502	0
bin	1504	0
bin	1506	0
bin	1508	0
bin	1510	0
bin	1512	0
bin	1514	0
bin	1516	0
bin	1518	0
bin	1520	0
bin	1522	0
bin	1524	0
bin	1526	0
bin	1528	0
bin	1530	0
bin	1532	0
bin	1534	0
bin	1536	0
bin	1538	0
bin	1540	0
bin	1542	0
bin	1544	0
bin	1546	0
bin	1548	0
bin	1550	0
bin	1552	0
bin	1554	0
bin	1556	0
bin	1558	0
bin	1560	0
bin	1562	0
bin	1564	0
bin	1566	0
bin	1568	0
bin	1570	0
bin	1572	0
bin	1574	0
bin	1576	0
bin	1578	0
bin	1580	1
bin	1582	0
bin	1584	0
bin	1586	0
bin	1588	0
bin	1590	0
bin	1592	0
bin	1594	0
bin	1596	0
bin	1598	0
bin	1600	0
scalar Net5.rte[9].queue[0] busy:timeavg 0.0015150626273301
attr interpolationmode sample-hold
attr title "server busy state, timeavg"
scalar Net5.rte[9].queue[0] qlen:timeavg 0.0021322763974201
attr interpolationmode sample-hold
attr title "queue length, timeavg"
scalar Net5.rte[9].queue[0] qlen:max 4
attr interpolationmode sample-hold
attr title "queue length, max"
scalar Net5.rte[9].queue[0] drop:count 0
attr interpolationmode none
attr title "dropped packet byte length, count"
attr unit bytes
scalar Net5.rte[9].queue[0] drop:sum 0
attr interpolationmode none
attr title "dropped packet byte length, sum"
attr unit bytes
scalar Net5.rte[9].queue[1] rxBytes:count 57
attr interpolationmode none
attr title "received packet byte length, count"
attr unit bytes
scalar Net5.rte[9].queue[1] rxBytes:sum 85610
attr interpolationmode none
attr title "received packet byte length, sum"
attr unit bytes
statistic Net5.rte[9].queue[1] rxBytes:histogram
field count 57
field mean 1501.9298245614
field stddev 10.253674688203
field min 1500
field max 1560
field sum 85610
field sqrsum 128586100
attr interpolationmode none
attr title "received packet byte length, histogram"
attr unit bytes
bin	-inf	0
bin	1485	0
bin	1486	0
bin	1487	0
bin	1488	0
bin	1489	0
bin	1490	0
bin	1491	0
bin	1492	0
bin	1493	0
bin	1494	0
bin	1495	0
bin	1496	0
bin	1497	0
bin	1498	0
bin	1499	0
bin	1500	55
bin	1501	0
bin	1502	0
bin	1503	0
bin	1504	0
bin	1505	0
bin	1506	0
bin	1507	0
bin	1508	0
bin	1509	0
bin	1510	0
bin	1511	0
bin	1512	0
bin	1513	0
bin	1514	0
bin	1515	0
bin	1516	0
bin	1517	0
bin	1518	0
bin	1519	0
bin	1520	0
bin	1521	0
bin	1522	0
bin	1523	0
bin	1524	0
bin	1525	0
bin	1526	0
bin	1527	0
bin	1528	0
bin	1529	0
bin	1530	0
bin	1531	0
bin	1532	0
bin	1533	0
bin	1534	0
bin	1535	0
bin	1536	0
bin	1537	0
bin	1538	0
bin	1539	0
bin	1540	0
bin	1541	0
bin	1542	0
bin	1543	0
bin	1544	0
bin	1545	0
bin	1546	0
bin	1547	0
bin	1548	0
bin	1549	0
bin	1550	1
bin	1551	0
bin	1552	0
bin	1553	0
bin	1554	0
bin	1555	0
bin	1556	0
bin	1557	0
bin	1558	0
bin	1559	0
bin	1560	1
bin	1561	0
bin	1562	0
bin	1563	0
bin	1564	0
bin	1565	0
bin	1566	0
bin	1567	0
bin	1568	0
bin	1569	0
bin	1570	0
bin	1571	0
bin	1572	0
bin	1573	0
bin	1574	0
bin	1575	0
scalar Net5.rte[9].queue[1] txBytes:count 57
attr interpolationmode none
attr title "transmitting packet byte length, count"
attr unit bytes
scalar Net5.rte[9].queue[1] txBytes:sum 85630
attr interpolationmode none
attr title "transmitting packet byte length, sum"
attr unit bytes
statistic Net5.rte[9].queue[1] txBytes:histogram
field count 57
field mean 1502.2807017544
field stddev 9.8229948625717
field min 1500
field max 1560
field sum 85630
field sqrsum 128645700
attr interpolationmode none
attr title "transmitting packet byte length, histogram"
attr unit bytes
bin	-inf	0
bin	1485	0
bin	1486	0
bin	1487	0
bin	1488	0
bin	1489	0
bin	1490	0
bin	1491	0
bin	1492	0
bin	1493	0
bin	1494	0
bin	1495	0
bin	1496	0
bin	1497	0
bin	1498	0
bin	1499	0
bin	1500	53
bin	1501	0
bin	1502	0
bin	1503	0
bin	1504	0
bin	1505	0
bin	1506	0
bin	1507	0
bin	1508	0
bin	1509	0
bin	1510	1
bin	1511	0
bin	1512	0
bin	1513	0
bin	1514	0
bin	1515	0
bin	1516	0
bin	1517	0
bin	1518	0
bin	1519	0
bin	1520	1
bin	1521	0
bin	1522	0
bin	1523	0
bin	1524	0
bin	1525	0
bin	1526	0
bin	1527	0
bin	1528	0
bin	1529	0
bin	1530	0
bin	1531	0
bin	1532	0
bin	1533	0
bin	1534	0
bin	1535	0
bin	1536	0
bin	1537	0
bin	1538	0
bin	1539	0
bin	1540	1
bin	1541	0
bin	1542	0
bin	1543	0
bin	1544	0
bin	1545	0
bin	1546	0
bin	1547	0
bin	1548	0
bin	1549	0
bin	1550	0
bin	1551	0
bin	1552	0
bin	1553	0
bin	1554	0
bin	1555	0
bin	1556	0
bin	1557	0
bin	1558	0
bin	1559	0
bin	1560	1
bin	1561	0
bin	1562	0
bin	1563	0
bin	1564	0
bin	1565	0
bin	1566	0
bin	1567	0
bin	1568	0
bin	1569	0
bin	1570	0
bin	1571	0
bin	1572	0
bin	1573	0
bin	1574	0
bin	1575	0
scalar Net5.rte[9].queue[1] busy:timeavg 0.00196329922482
attr interpolationmode sample-hold
attr title "server busy state, timeavg"
scalar Net5.rte[9].queue[1] qlen:timeavg 0.0034391554797099
attr interpolationmode sample-hold
attr title "queue length, timeavg"
scalar Net5.rte[9].queue[1] qlen:max 5
attr interpolationmode sample-hold
attr title "queue length, max"
scalar Net5.rte[9].queue[1] drop:count 0
attr interpolationmode none
attr title "dropped packet byte length, count"
attr unit bytes
scalar Net5.rte[9].queue[1] drop:sum 0
attr interpolationmode none
attr title "dropped packet byte length, sum"
attr unit bytes

