file 65689696 1559738664                                        
version 2
run General-12-20190605-14:43:24-16848
attr configname General
attr datetime 20190605-14:43:24
attr experiment General
attr inifile omnetpp.ini
attr iterationvars ""
attr iterationvarsf ""
attr measurement ""
attr network networks.Net5
attr processid 16848
attr repetition 12
attr replication #12
attr resultdir results
attr runnumber 12
attr seedset 12
param **.appType "\"App\""
param **.app.packetLength "1500 bytes"
param **.app.totalNodes 3
param **.destAddresses "\"0\""
param **.sendIaTime "uniform(5s, 10s)"
param **.sendIaTimeEvil 10ms

vector 0 Net5.rte[2].app endToEndDelay:vector ETV
attr interpolationmode none
attr title "end-to-end delay of arrived packets, vector"
attr unit s
vector 1 Net5.rte[0].app endToEndDelay:vector ETV
attr interpolationmode none
attr title "end-to-end delay of arrived packets, vector"
attr unit s
vector 2 Net5.rte[1].app endToEndDelay:vector ETV
attr interpolationmode none
attr title "end-to-end delay of arrived packets, vector"
attr unit s
2	1032 1402825 34 1077864 6.177480874749 6808.275905301019 32768 0.101666666667 0.103333333334 3331.4183666757 338.69472066956
0	1403857 1402851 7 1078144 5.872480874748 6810.057571967686 32768 0.101666666667 0.103333333334 3331.4167444535 338.6943880424
0	2806708 1459091 1078177 2156031 6810.267571967686 13593.477571967686 32768 0.101666666667 0.101666666667 3331.4133333424 338.69368889117
2	4265799 1459117 1077897 2156246 6808.485905301019 13594.845905301019 32768 0.101666666667 0.101666666667 3331.4133333424 338.69368889117
0	5724916 1474510 2156064 3234165 13593.687571967686 20379.627571967686 32768 0.101666666667 0.101666666667 3331.4133333424 338.69368889117
2	7199426 1474496 2156279 3234479 13595.055905301019 20381.625905301019 32768 0.101666666667 0.101666666667 3331.4133333424 338.69368889117
0	8673922 1474508 3234198 4311969 20379.837571967686 27163.677571967686 32768 0.101666666667 0.101666666667 3331.4133333424 338.69368889117
2	10148430 1474511 3234512 4313022 20381.835905301019 27170.295905301019 32768 0.101666666667 0.101666666667 3331.4133333424 338.69368889117
2	11622941 1474510 4313055 5390238 27170.505905301019 33950.355905301019 32768 0.101666666667 0.101666666667 3331.4133333424 338.69368889117
0	13097451 1474511 4312002 5391125 27163.887571967686 33955.917571967686 32768 0.101666666667 0.101666666667 3331.4133333424 338.69368889117
2	14571962 1474502 5390271 6467897 33950.565905301019 40733.565905301019 32768 0.101666666667 0.101666666667 3331.4133333424 338.69368889117
0	16046464 1474509 5391158 6469787 33956.127571967686 40745.427571967686 32768 0.101666666667 0.101666666667 3331.4133333424 338.69368889117
2	17520973 1474510 6467930 7546314 40733.775905301019 47521.185905301019 32768 0.101666666667 0.101666666667 3331.4133333424 338.69368889117
0	18995483 1474508 6469820 7547709 40745.637571967686 47529.897571967686 32768 0.101666666667 0.101666666667 3331.4133333424 338.69368889117
2	20469991 1474507 7546347 8624236 47521.395905301019 54305.655905301019 32768 0.101666666667 0.101666666667 3331.4133333424 338.69368889117
0	21944498 1474503 7547742 8626159 47530.107571967686 54317.727571967686 32768 0.101666666667 0.101666666667 3331.4133333424 338.69368889117
2	23419001 1474507 8624269 9701267 54305.865905301019 61084.455905301019 32768 0.101666666667 0.101666666667 3331.4133333424 338.69368889117
0	24893508 1474509 8626192 9705427 54317.937571967686 61110.597571967686 32768 0.101666666667 0.101666666667 3331.4133333424 338.69368889117
2	26368017 1498198 9701300 10779237 61084.665905301019 67869.975905301019 32768 0.101666666667 0.101666666667 3331.4133333424 338.69368889117
0	27866215 1498330 9705460 10783892 61110.807571967686 67899.267571967686 32768 0.101666666667 0.101666666667 3331.4133333424 338.69368889117
2	29364545 1507265 10779270 11857108 67870.185905301019 74654.865905301019 32768 0.101666666667 0.101666666667 3331.4133333424 338.69368889117
0	30871810 1507284 10783925 11862403 67899.477571967686 74688.147571967686 32768 0.101666666667 0.101666666667 3331.4133333424 338.69368889117
2	32379094 1507266 11857141 12935275 74655.075905301019 81441.225905301019 32768 0.101666666667 0.101666666667 3331.4133333424 338.69368889117
0	33886360 1507279 11862436 12940656 74688.357571967686 81475.137571967686 32768 0.101666666667 0.101666666667 3331.4133333424 338.69368889117
2	35393639 1507272 12935308 14013270 81441.435905301019 88226.325905301019 32768 0.101666666667 0.101666666667 3331.4133333424 338.69368889117
0	36900911 1507291 12940689 14018961 81475.347571967686 88262.127571967686 32768 0.101666666667 0.101666666667 3331.4133333424 338.69368889117
2	38408202 1507274 14013303 15090968 88226.535905301019 95009.535905301019 32768 0.101666666667 0.101666666667 3331.4133333424 338.69368889117
0	39915476 1507280 14018994 15097609 88262.337571967686 95051.217571967686 32768 0.101666666667 0.101666666667 3331.4133333424 338.69368889117
2	41422756 1515961 15091001 16169364 95009.745905301019 101796.525905301019 32768 0.101666666667 0.101666666667 3331.4133333424 338.69368889117
0	42938717 1516135 15097642 16175550 95051.427571967686 101835.477571967686 32768 0.101666666667 0.101666666667 3331.4133333424 338.69368889117
2	44454852 1540039 16169397 17248565 101796.735905301019 108588.555905301019 32768 0.101666666667 0.101666666667 3331.4133333424 338.69368889117
0	45994891 1540048 16175583 17252613 101835.687571967686 108614.067571967686 32768 0.101666666667 0.101666666667 3331.4133333424 338.69368889117
2	47534939 1540042 17248598 18327176 108588.765905301019 115378.485905301019 32768 0.101666666667 0.101666666667 3331.4133333424 338.69368889117
0	49074981 1540037 17252646 18330452 108614.277571967686 115399.167571967686 32768 0.101666666667 0.101666666667 3331.4133333424 338.69368889117
2	50615018 1540042 18327209 19405191 115378.695905301019 122163.795905301019 32768 0.101666666667 0.101666666667 3331.4133333424 338.69368889117
0	52155060 1540036 18330485 19408843 115399.377571967686 122186.787571967686 32768 0.101666666667 0.101666666667 3331.4133333424 338.69368889117
2	53695096 1540026 19405224 20483397 122164.005905301019 128950.155905301019 32768 0.101666666667 0.101666666667 3331.4133333424 338.69368889117
0	55235122 1540046 19408876 20486970 122186.997571967686 128972.727571967686 32768 0.101666666667 0.101666666667 3331.4133333424 338.69368889117
2	56775168 1540037 20483430 21560844 128950.365905301019 135731.685905301019 32768 0.101666666667 0.101666666667 3331.4133333424 338.69368889117
0	58315205 1540041 20487003 21565743 128972.937571967686 135762.447571967686 32768 0.101666666667 0.101666666667 3331.4133333424 338.69368889117
2	59855246 1540042 21560877 22638720 135731.895905301019 142515.945905301019 32768 0.101666666667 0.101666666667 3331.4133333424 338.69368889117
0	61395288 1540047 21565776 22644312 135762.657571967686 142551.117571967686 32768 0.101666666667 0.101666666667 3331.4133333424 338.69368889117
0	62935335 926388 22644345 23292917 142551.327571967686 146633.517571967686 19711 0.101666666667 0.101666666667 2003.9516666725 203.73508611236
1	63861723 893457 13 23292332 5.974147541415 146629.796742682091 19573 0.101666666667 0.103333333334 1989.9250888947 202.30940419038
2	64755180 934514 22638753 23292901 142516.155905301019 146633.415905301019 19884 0.101666666667 0.101666666667 2021.5400000059 205.5232333346

