version 2
run General-17-20190610-18:03:55-9036
attr configname General
attr datetime 20190610-18:03:55
attr experiment General
attr inifile omnetpp.ini
attr iterationvars ""
attr iterationvarsf ""
attr measurement ""
attr network networks.Net5
attr processid 9036
attr repetition 17
attr replication #17
attr resultdir results
attr runnumber 17
attr seedset 17
param **.appType "\"App\""
param **.app.packetLength "1500 bytes"
param **.app.totalNodes 10
param **.destAddresses "\"0\""
param **.sendIaTime "uniform(5s, 10s)"
param **.sendIaTimeEvil 10ms

vector 0 Net5.rte[7].app endToEndDelay:vector ETV
attr interpolationmode none
attr title "end-to-end delay of arrived packets, vector"
attr unit s
vector 1 Net5.rte[6].app endToEndDelay:vector ETV
attr interpolationmode none
attr title "end-to-end delay of arrived packets, vector"
attr unit s
vector 2 Net5.rte[5].app endToEndDelay:vector ETV
attr interpolationmode none
attr title "end-to-end delay of arrived packets, vector"
attr unit s
vector 3 Net5.rte[3].app endToEndDelay:vector ETV
attr interpolationmode none
attr title "end-to-end delay of arrived packets, vector"
attr unit s
vector 4 Net5.rte[9].app endToEndDelay:vector ETV
attr interpolationmode none
attr title "end-to-end delay of arrived packets, vector"
attr unit s
vector 5 Net5.rte[4].app endToEndDelay:vector ETV
attr interpolationmode none
attr title "end-to-end delay of arrived packets, vector"
attr unit s
vector 6 Net5.rte[0].app endToEndDelay:vector ETV
attr interpolationmode none
attr title "end-to-end delay of arrived packets, vector"
attr unit s
vector 7 Net5.rte[1].app endToEndDelay:vector ETV
attr interpolationmode none
attr title "end-to-end delay of arrived packets, vector"
attr unit s
vector 8 Net5.rte[2].app endToEndDelay:vector ETV
attr interpolationmode none
attr title "end-to-end delay of arrived packets, vector"
attr unit s
vector 9 Net5.rte[8].app endToEndDelay:vector ETV
attr interpolationmode none
attr title "end-to-end delay of arrived packets, vector"
attr unit s
0	11	5.54283511286	0.203333333334
0	35	5.949501779528	0.203333333334
0	188	6.213888858977	0.305000000001
0	276	6.366168446198	0.213333333336
0	466	6.823888858979	0.305000000001
0	534	6.879270593907	0.311666666669
0	597	6.980937260574	0.210000000002
0	819	7.442222192316	0.313333333336
0	931	7.698325024131	0.310000000002
0	1067	8.008325024133	0.315000000003
0	1134	8.181149597531	0.215000000003
0	1250	8.582816264198	0.311666666669
0	1374	9.644106634792	0.305000000001
0	1565	9.858260643667	0.313333333336
0	1714	10.04616921051	0.215000000003
0	1750	10.059927310334	0.311666666669
0	1863	10.242835877176	0.208333333335
0	1866	10.25417330146	0.305000000001
0	1907	10.265839968129	0.31666666667
0	2233	12.085655635428	0.311666666669
0	2310	12.187322302095	0.210000000002
0	2352	12.286903963504	0.208333333335
0	2431	12.495237296839	0.315000000003
0	2611	13.144393341755	0.311666666669
0	2641	13.347726675089	0.311666666669
0	2867	14.753872941521	0.311666666669
0	3019	14.960539608189	0.213333333336
0	3062	14.979388035973	0.311666666669
0	3124	15.184388035974	0.313333333336
0	3324	15.709134407441	0.313333333336
0	3340	15.807467740774	0.310000000002
0	3538	16.324820013431	0.208333333335
0	3544	16.329820013432	0.315000000003
0	3547	16.331486680099	0.204776394933
0	3647	16.738220013433	0.203333333334
0	3689	16.746553346768	0.211666666669
0	3919	17.207073054257	0.208333333335
0	3964	17.412073054258	0.311666666669
0	3983	17.798068021723	0.305000000001
0	4194	18.406114349248	0.210000000002
0	4200	18.408168021724	0.3051
0	4233	18.414447682583	0.320000000004
0	4443	19.028168021728	0.315000000003
0	4653	20.630849837066	0.210000000002
0	4768	20.808781961119	0.210000000002
0	4840	20.935849837067	0.311666666669
0	4861	21.015448627787	0.213333333336
0	5038	22.127270218406	0.215000000003
0	5114	22.323936885072	0.208333333335
0	5359	23.249256790631	0.208333333335
0	5481	23.415239139334	0.311666666669
0	5530	23.515239139334	0.310000000002
0	5572	23.659256790633	0.313333333336
0	5717	23.978001285775	0.101666666667
0	5743	23.984667952443	0.311666666669
0	5938	24.471630124648	0.210000000002
0	5951	24.479963457983	0.320000000004
0	6138	25.956278055409	0.211666666669
0	6224	26.147910735735	0.203333333334
0	6248	26.16127805541	0.213333333336
0	6448	26.433114477203	0.313333333336
0	6514	26.554688513513	0.203333333334
0	6556	26.563021846848	0.211666666669
0	6566	26.63478114387	0.311666666669
0	6785	27.778814064061	0.215000000003
0	6918	28.183814064062	0.315000000003
0	6983	29.558762659687	0.101666666667
0	7108	29.768762659689	0.210000000002
0	7245	30.477833668118	0.208333333335
0	7310	30.754438365543	0.203333333334
0	7322	30.782833668119	0.310000000002
0	7351	31.161282809989	0.203511111112
0	7618	31.577949476659	0.213333333336
0	7863	31.881919864864	0.101666666667
0	7897	31.890253198199	0.313333333336
0	7943	31.98367815164	0.310000000002
0	7973	32.085344818307	0.208333333335
0	8109	33.1779411468	0.215000000003
0	8234	33.581274480134	0.313333333336
0	8425	34.829073603865	0.313333333336
0	8493	35.034073603866	0.315000000003
0	8507	35.329217286912	0.305000000001
0	8619	35.939450620245	0.305000000001
0	8648	35.94778395358	0.313333333336
0	8960	38.506022362337	0.305000000001
0	9063	38.633227297831	0.31666666667
0	9158	38.831560631164	0.210000000002
0	9276	39.116322362339	0.305300000001
0	9338	39.186075001013	0.215000000003
0	9609	39.58774166768	0.311666666669
0	9892	40.354618426304	0.215000000003
0	9908	40.361165420251	0.101666666667
0	10153	40.564532086918	0.1017
0	10206	40.604018820167	0.208333333335
0	10219	40.610685486835	0.31666666667
1	21	5.746168446194	0.203333333334
1	123	6.152835112862	0.203333333334
1	175	6.164501779531	0.215000000003
1	527	6.87760392724	0.310000000002
1	594	6.979270593907	0.208333333335
1	626	7.038888858982	0.215000000003
1	770	7.356116264193	0.305000000001
1	816	7.440555525649	0.311666666669
1	927	7.696658357464	0.308333333335
1	1021	7.966149597528	0.305033333334
1	1064	8.006658357466	0.313333333336
1	1247	8.581149597531	0.310000000002
1	1303	9.424502543839	0.203333333334
1	1352	9.545990809199	0.101666666667
1	1484	9.831169210507	0.203333333334
1	1561	9.856593977	0.311666666669
1	1743	10.058260643667	0.310000000002
1	1860	10.241169210509	0.206666666668
1	1903	10.264173301462	0.315000000003
1	1971	10.467506634796	0.213333333336
1	2225	12.083988968761	0.310000000002
1	2305	12.185655635428	0.208333333335
1	2346	12.285237296837	0.206666666668
1	2428	12.493570630172	0.313333333336
1	2603	13.142726675088	0.310000000002
1	2638	13.346060008422	0.310000000002
1	2674	14.137106274852	0.305000000001
1	2838	14.747206274853	0.305000000001
1	2863	14.752206274854	0.310000000002
1	3055	14.977721369306	0.310000000002
1	3121	15.182721369307	0.311666666669
1	3321	15.707467740774	0.311666666669
1	3337	15.805801074107	0.308333333335
1	3535	16.323153346764	0.206666666668
1	3541	16.328153346765	0.313333333336
1	3685	16.744886680101	0.210000000002
1	3764	16.951553346769	0.213333333336
1	3908	17.20540638759	0.206666666668
1	3961	17.410406387591	0.310000000002
1	4191	18.404447682581	0.208333333335
1	4229	18.412781015916	0.318333333337
1	4310	18.623168021727	0.215000000003
1	4440	19.026501355061	0.313333333336
1	4495	20.395359738895	0.203333333334
1	4648	20.629183170399	0.208333333335
1	4732	20.802115294451	0.203333333334
1	4764	20.807115294452	0.208333333335
1	4837	20.9341831704	0.310000000002
1	4895	21.505492440625	0.203333333334
1	4915	21.912270218403	0.203444444444
1	5111	22.322270218405	0.206666666668
1	5356	23.247590123964	0.206666666668
1	5477	23.413572472667	0.310000000002
1	5527	23.513572472667	0.308333333335
1	5569	23.657590123966	0.311666666669
1	5716	23.978001285775	0.101666666667
1	5739	23.983001285776	0.310000000002
1	5935	24.469963457981	0.208333333335
1	5948	24.478296791316	0.318333333337
1	5982	25.541144722074	0.203333333334
1	6096	25.947944722074	0.203333333334
1	6134	25.954611388742	0.210000000002
1	6444	26.431447810536	0.311666666669
1	6552	26.561355180181	0.210000000002
1	6563	26.633114477203	0.310000000002
1	6633	26.768021846849	0.213333333336
1	6663	26.953680730724	0.305000000001
1	6691	27.563814064058	0.305133333333
1	6915	28.182147397395	0.313333333336
1	6982	29.558762659687	0.101666666667
1	7105	29.767095993022	0.208333333335
1	7240	30.476167001451	0.206666666668
1	7319	30.781167001452	0.308333333335
1	7329	30.957771698877	0.203333333334
1	7444	31.364616143323	0.203333333334
1	7500	31.376282809992	0.215000000003
1	7862	31.881919864864	0.101666666667
1	7894	31.888586531532	0.311666666669
1	7930	31.982011484973	0.308333333335
1	7970	32.08367815164	0.206666666668
1	7987	32.352674480128	0.305000000001
1	8015	32.962941146797	0.305266666668
1	8231	33.579607813467	0.311666666669
1	8418	34.827406937198	0.311666666669
1	8490	35.032406937199	0.313333333336
1	8644	35.946117286913	0.311666666669
1	8708	36.152783953581	0.213333333336
1	8808	38.123906125679	0.305000000001
1	8889	38.36087500101	0.305000000001
1	9060	38.631560631164	0.315000000003
1	9154	38.829893964497	0.208333333335
1	9186	38.97107500101	0.305199999999
1	9478	39.331322362342	0.215000000003
1	9590	39.529385092968	0.305000000001
1	9606	39.586075001013	0.310000000002
1	9639	39.736022362337	0.305000000001
1	9723	40.139618426301	0.305233333332
1	10200	40.6023521535	0.206666666668
1	10216	40.609018820168	0.315000000003
2	104	6.061168446197	0.111666666669
2	226	6.262835112864	0.110000000002
2	439	6.774270593906	0.206666666668
2	519	6.875937260573	0.105000000001
2	566	6.935555525648	0.111666666669
2	759	7.337222192315	0.208333333335
2	876	7.59332502413	0.205000000001
2	1004	7.903325024132	0.210000000002
2	1094	8.077816264197	0.111666666669
2	1232	8.477816264197	0.206666666668
2	1386	9.647657475866	0.101666666667
2	1470	9.753260643666	0.208333333335
2	1592	9.942835877176	0.111666666669
2	1644	9.954927310333	0.206666666668
2	1789	10.137835877175	0.103333333334
2	1833	10.160839968128	0.211666666669
2	1938	10.364173301462	0.110000000002
2	2144	11.980655635427	0.206666666668
2	2215	12.082322302094	0.105000000001
2	2279	12.181903963503	0.103333333334
2	2395	12.390237296838	0.210000000002
2	2553	13.039393341754	0.206666666668
2	2623	13.242726675088	0.206666666668
2	2792	14.64887294152	0.206666666668
2	2933	14.857206274855	0.110000000002
2	2979	14.874388035972	0.206666666668
2	3099	15.079388035973	0.208333333335
2	3284	15.60413440744	0.208333333335
2	3308	15.702467740773	0.205000000001
2	3488	16.21982001343	0.103333333334
2	3510	16.224820013431	0.210000000002
2	3603	16.627894683474	0.101666666667
2	3632	16.641553346767	0.106666666668
2	3725	16.848220013435	0.110000000002
2	3859	17.102073054256	0.103333333334
2	3943	17.307073054257	0.206666666668
2	4141	18.301114349247	0.105000000001
2	4167	18.309447682582	0.215000000003
2	4273	18.519834688393	0.111666666669
2	4413	18.923168021727	0.210000000002
2	4559	20.525849837065	0.105000000001
2	4681	20.703781961118	0.105000000001
2	4784	20.830849837066	0.206666666668
2	4822	20.912115294453	0.110000000002
2	4972	22.023936885072	0.111666666669
2	5069	22.218936885071	0.103333333334
2	5255	23.14425679063	0.103333333334
2	5401	23.310239139333	0.206666666668
2	5467	23.410239139333	0.205000000001
2	5518	23.46966795244	0.203333333334
2	5547	23.554256790632	0.208333333335
2	5653	23.876334619108	0.203333333334
2	5685	23.879667952442	0.206666666668
2	5889	24.366630124647	0.105000000001
2	5911	24.374963457982	0.215000000003
2	6073	25.851278055408	0.106666666668
2	6176	26.057944722076	0.110000000002
2	6357	26.328114477202	0.208333333335
2	6477	26.458021846847	0.106666666668
2	6499	26.529781143869	0.206666666668
2	6596	26.664688513515	0.110000000002
2	6748	27.675480730727	0.111666666669
2	6888	28.078814064061	0.210000000002
2	6929	29.253673770797	0.101666666667
2	6941	29.45709599302	0.101755555556
2	7068	29.663762659688	0.105000000001
2	7184	30.372833668117	0.103333333334
2	7299	30.677833668118	0.205000000001
2	7427	31.272949476658	0.111666666669
2	7492	31.373542087085	0.203333333334
2	7548	31.474616143325	0.110000000002
2	7754	31.780253198197	0.203333333334
2	7801	31.785253198198	0.208333333335
2	7842	31.878678151639	0.205000000001
2	7919	31.980344818306	0.103333333334
2	8072	33.074607813466	0.111666666669
2	8213	33.476274480133	0.208333333335
2	8378	34.724073603864	0.208333333335
2	8457	34.929073603865	0.210000000002
2	8607	35.842783953579	0.208333333335
2	8675	36.049450620247	0.110000000002
2	8984	38.52822729783	0.211666666669
2	9108	38.726560631163	0.105000000001
2	9258	39.082741667679	0.111666666669
2	9381	39.227989029008	0.111666666669
2	9571	39.482741667679	0.206666666668
2	9802	40.25128509297	0.111666666669
2	10040	40.462832086918	0.101666666667
2	10066	40.499018820166	0.103333333334
2	10094	40.505685486834	0.211666666669
2	10233	40.649618426303	0.205000000001
3	160	6.15950177953	0.210000000002
3	264	6.361168446197	0.208333333335
3	372	6.670937260572	0.103333333334
3	587	6.975937260573	0.205000000001
3	620	7.033888858981	0.210000000002
3	813	7.435555525648	0.306666666668
3	882	7.594991690797	0.206666666668
3	958	7.798325024131	0.105000000001
3	1128	8.17614959753	0.210000000002
3	1200	8.374482930863	0.103333333334
3	1368	9.627835877173	0.203333333334
3	1536	9.851593976999	0.103333333334
3	1538	9.851593976999	0.306666666668
3	1666	10.034502543841	0.203333333334
3	1708	10.041169210509	0.210000000002
3	1737	10.055839968127	0.106666666668
3	1965	10.462506634795	0.208333333335
3	2062	11.875215074613	0.101666666667
3	2078	11.877322302093	0.103333333334
3	2165	12.078570630169	0.101688888889
3	2285	12.182322302094	0.205000000001
3	2345	12.285237296837	0.105000000001
3	2495	12.93606000842	0.103333333334
3	2585	13.139393341754	0.103333333334
3	2789	14.647206274853	0.205000000001
3	2886	14.771054702638	0.103333333334
3	3013	14.955539608188	0.208333333335
3	3118	15.177721369306	0.306666666668
3	3307	15.702467740773	0.205000000001
3	3309	15.702467740773	0.306666666668
3	3349	15.91313112454	0.101666666667
3	3398	16.116486680096	0.101666666667
3	3436	16.11982001343	0.105000000001
3	3679	16.741553346767	0.206666666668
3	3696	16.795350832033	0.101666666667
3	3758	16.946553346768	0.208333333335
3	3775	16.998739720922	0.101722222222
3	3898	17.203739720923	0.103333333334
3	4184	18.401114349247	0.205000000001
3	4224	18.409447682582	0.315000000003
3	4304	18.618168021726	0.210000000002
3	4374	18.818168021726	0.105000000001
3	4475	20.192026405561	0.203333333334
3	4575	20.598781961117	0.203422222222
3	4635	20.625849837065	0.205000000001
3	4706	20.727516503732	0.103333333334
3	4855	21.010448627786	0.208333333335
3	4905	21.708825773959	0.203333333334
3	4987	22.115603551737	0.203333333334
3	5029	22.122270218405	0.210000000002
3	5124	22.430756790629	0.305000000001
3	5168	23.040923457296	0.305166666666
3	5310	23.206905805999	0.103333333334
3	5466	23.410239139333	0.205000000001
3	5566	23.652590123965	0.306666666668
3	5680	23.878001285775	0.205000000001
3	5724	23.979667952442	0.103333333334
3	5928	24.466630124647	0.205000000001
3	5945	24.474963457982	0.315000000003
3	6128	25.951278055408	0.206666666668
3	6242	26.156278055409	0.208333333335
3	6419	26.426447810535	0.103333333334
3	6421	26.426447810535	0.306666666668
3	6546	26.558021846847	0.206666666668
3	6627	26.763021846848	0.208333333335
3	6779	27.77381406406	0.210000000002
3	6849	27.97381406406	0.105000000001
3	7011	29.560429326354	0.103333333334
3	7098	29.763762659688	0.205000000001
3	7111	29.862722557005	0.203333333334
3	7134	30.269500334783	0.203444444444
3	7298	30.677833668118	0.205000000001
3	7485	31.371282809991	0.210000000002
3	7530	31.470167040526	0.203333333334
3	7588	31.572949476658	0.208333333335
3	7701	31.681919864864	0.105000000001
3	7814	31.877011484972	0.203333333334
3	7850	31.880344818306	0.206666666668
3	7876	31.883586531531	0.103333333334
3	8103	33.172941146799	0.210000000002
3	8228	33.574607813466	0.306666666668
3	8318	34.62074027053	0.105000000001
3	8408	34.824073603864	0.105000000001
3	8571	35.739450620245	0.105000000001
3	8702	36.14778395358	0.208333333335
3	8921	38.423227297829	0.106666666668
3	9147	38.826560631163	0.205000000001
3	9332	39.181075001012	0.210000000002
3	9470	39.326322362341	0.210000000002
3	9503	39.379408334345	0.103333333334
3	9766	40.192252153498	0.101666666667
3	9885	40.349618426303	0.210000000002
3	9917	40.395685486832	0.101666666667
3	9952	40.400685486833	0.106666666668
3	10232	40.649618426303	0.205000000001
4	163	6.16093726057	0.203333333334
4	245	6.269501779532	0.320000000004
4	307	6.471168446199	0.318333333337
4	320	6.567603927238	0.203333333334
4	591	6.97760392724	0.206666666668
4	692	7.143888858983	0.320000000004
4	756	7.335555525648	0.206666666668
4	835	7.489991690796	0.101666666667
4	895	7.661116264194	0.305000000001
4	940	7.754600430706	0.101666666667
4	1018	7.9099916908	0.21666666667
4	1145	8.271149597529	0.305000000001
4	1187	8.286149597532	0.320000000004
4	1469	9.753260643666	0.208333333335
4	1652	9.956593977	0.208333333335
4	1779	10.136169210508	0.101666666667
4	1814	10.151169210511	0.320000000004
4	1847	10.167506634796	0.218333333337
4	1994	10.572506634797	0.318333333337
4	2159	11.983988968761	0.210000000002
4	2246	12.180237296836	0.101666666667
4	2297	12.183988968761	0.206666666668
4	2409	12.396903963506	0.21666666667
4	2441	12.629348897308	0.203333333334
4	2524	13.03606000842	0.203333333334
4	2569	13.042726675088	0.210000000002
4	2750	14.543872941519	0.101666666667
4	2994	14.877721369306	0.210000000002
4	3082	15.06553960819	0.318333333337
4	3096	15.077721369306	0.206666666668
4	3251	15.599134407439	0.101666666667
4	3283	15.60413440744	0.208333333335
4	3478	16.218153346763	0.101666666667
4	3506	16.223153346764	0.208333333335
4	3680	16.741553346767	0.206666666668
4	3820	17.05655334677	0.318333333337
4	3832	17.100406387589	0.101666666667
4	3950	17.308739720924	0.208333333335
4	4143	18.301114349247	0.206666666668
4	4188	18.402781015914	0.206666666668
4	4363	18.728168021728	0.320000000004
4	4427	18.929834688395	0.21666666667
4	4481	20.217449837064	0.203333333334
4	4610	20.624183170398	0.203333333334
4	4647	20.629183170399	0.208333333335
4	4666	20.700448627784	0.101666666667
4	4884	21.120448627788	0.318333333337
4	5059	22.217270218404	0.101666666667
4	5098	22.232270218407	0.320000000004
4	5247	23.142590123963	0.101666666667
4	5380	23.306905805999	0.101666666667
4	5418	23.313572472667	0.210000000002
4	5544	23.552590123965	0.206666666668
4	5620	23.774667952441	0.101666666667
4	5764	24.084667952443	0.208333333335
4	5891	24.366630124647	0.206666666668
4	5932	24.468296791314	0.206666666668
4	6129	25.951278055408	0.206666666668
4	6313	26.266278055411	0.318333333337
4	6356	26.328114477202	0.208333333335
4	6506	26.531447810536	0.208333333335
4	6547	26.558021846847	0.206666666668
4	6660	26.87302184685	0.318333333337
4	6838	27.883814064062	0.320000000004
4	6902	28.085480730729	0.21666666667
4	7080	29.665429326355	0.208333333335
4	7102	29.765429326355	0.206666666668
4	7176	30.37116700145	0.101666666667
4	7262	30.574500334784	0.101666666667
4	7570	31.481282809993	0.320000000004
4	7705	31.68294947666	0.318333333337
4	7734	31.775344818305	0.101666666667
4	7802	31.785253198198	0.208333333335
4	7909	31.978678151639	0.101666666667
4	7953	31.988586531532	0.208333333335
4	8162	33.282941146801	0.320000000004
4	8210	33.474607813466	0.206666666668
4	8248	34.108962492751	0.203333333334
4	8268	34.515740270529	0.203444444444
4	8471	34.935740270533	0.21666666667
4	8477	35.024217286911	0.305000000001
4	8521	35.634450620244	0.305233333332
4	8731	36.257783953582	0.318333333337
4	8999	38.534893964498	0.218333333337
4	9069	38.665875001011	0.305000000001
4	9151	38.82822729783	0.206666666668
4	9401	39.276075001011	0.305000000001
4	9445	39.291075001014	0.320000000004
4	9555	39.436322362343	0.320000000004
4	9808	40.25435569567	0.203333333334
4	10036	40.459618426305	0.320000000004
4	10058	40.497352153499	0.101666666667
4	10109	40.512352153502	0.218333333337
4	10124	40.546285092969	0.101666666667
4	10246	40.661222362338	0.203533333334
5	169	6.161168446197	0.211666666669
5	267	6.362835112864	0.210000000002
5	270	6.364270593904	0.203333333334
5	409	6.770937260572	0.203333333334
5	446	6.775937260573	0.208333333335
5	623	7.035555525648	0.211666666669
5	720	7.233888858981	0.105000000001
5	834	7.489991690796	0.101666666667
5	1061	8.003325024132	0.310000000002
5	1131	8.177816264197	0.211666666669
5	1233	8.477816264197	0.206666666668
5	1401	9.649927310332	0.105000000001
5	1645	9.954927310333	0.206666666668
5	1711	10.042835877176	0.211666666669
5	1853	10.237835877175	0.203333333334
5	1898	10.260839968128	0.311666666669
5	1968	10.464173301462	0.210000000002
5	2015	11.570633413203	0.203333333334
5	2111	11.977322302093	0.203333333334
5	2151	11.982322302094	0.208333333335
5	2327	12.281903963503	0.203333333334
5	2425	12.490237296838	0.310000000002
5	2560	13.041060008421	0.208333333335
5	2624	13.242726675088	0.206666666668
5	2757	14.545539608186	0.103333333334
5	2986	14.876054702639	0.208333333335
5	3016	14.957206274855	0.210000000002
5	3047	14.976054702639	0.105000000001
5	3216	15.500801074106	0.105000000001
5	3250	15.599134407439	0.101666666667
5	3459	16.126710285166	0.203333333334
5	3499	16.221486680097	0.206666666668
5	3528	16.31982001343	0.203333333334
5	3564	16.526228016807	0.101666666667
5	3570	16.534886680099	0.2034
5	3761	16.948220013435	0.210000000002
5	3889	17.202073054256	0.203333333334
5	3944	17.307073054257	0.206666666668
5	3999	17.992747682579	0.101666666667
5	4050	18.196114349246	0.101666666667
5	4093	18.201114349247	0.106666666668
5	4307	18.619834688393	0.211666666669
5	4437	19.023168021727	0.310000000002
5	4461	20.01411650373	0.203333333334
5	4501	20.420849837064	0.2034
5	4758	20.803781961118	0.205000000001
5	4785	20.830849837066	0.206666666668
5	4858	21.012115294453	0.210000000002
5	5032	22.123936885072	0.211666666669
5	5104	22.318936885071	0.203333333334
5	5345	23.24425679063	0.203333333334
5	5379	23.306905805999	0.101666666667
5	5417	23.313572472667	0.210000000002
5	5501	23.450923457298	0.105000000001
5	5627	23.776334619108	0.103333333334
5	5732	23.981334619109	0.105000000001
5	5746	24.058241235757	0.101666666667
5	5802	24.261630124646	0.101666666667
5	5845	24.266630124647	0.106666666668
5	5968	25.33781138874	0.203333333334
5	6006	25.74461138874	0.203466666666
5	6090	25.944577402401	0.203333333334
5	6245	26.157944722076	0.210000000002
5	6277	26.224781143868	0.105000000001
5	6371	26.351355180179	0.203444444444
5	6500	26.529781143869	0.206666666668
5	6630	26.764688513515	0.210000000002
5	6782	27.775480730727	0.211666666669
5	6912	28.178814064061	0.310000000002
5	6935	29.355340437464	0.101666666667
5	6980	29.558762659687	0.101666666667
5	7028	29.563762659688	0.106666666668
5	7206	30.472833668117	0.203333333334
5	7261	30.574500334784	0.101666666667
5	7489	31.372949476658	0.211666666669
5	7592	31.574616143325	0.210000000002
5	7733	31.775344818305	0.101666666667
5	7794	31.783586531531	0.206666666668
5	7886	31.885253198198	0.105000000001
5	7963	32.080344818306	0.203333333334
5	8106	33.174607813466	0.211666666669
5	8182	33.372941146799	0.105000000001
5	8372	34.722406937197	0.206666666668
5	8487	35.029073603865	0.310000000002
5	8602	35.841117286912	0.206666666668
5	8705	36.149450620247	0.210000000002
5	8786	38.01126063116	0.305000000001
5	9019	38.621560631162	0.305000000001
5	9055	38.62822729783	0.311666666669
5	9335	39.182741667679	0.211666666669
5	9474	39.327989029008	0.211666666669
5	9572	39.482741667679	0.206666666668
5	9889	40.35128509297	0.211666666669
5	10123	40.546285092969	0.101666666667
5	10192	40.599018820166	0.203333333334
5	10213	40.605685486834	0.311666666669
6	201	6.256168446196	0.306666666668
6	291	6.457835112863	0.305000000001
6	410	6.770937260572	0.203333333334
6	641	7.075937260573	0.305000000001
6	644	7.083325024128	0.305000000001
6	673	7.130555525647	0.306666666668
6	862	7.535555525648	0.406666666668
6	901	7.69332502413	0.305000000001
6	923	7.694991690797	0.306666666668
6	1168	8.272816264196	0.306666666668
6	1226	8.474482930863	0.203333333334
6	1291	9.339106634791	0.305000000001
6	1606	9.949173301459	0.305066666667
6	1633	9.951593976999	0.406666666668
6	1638	9.953260643666	0.205000000001
6	1776	10.136169210508	0.101666666667
6	1790	10.137835877175	0.306666666668
6	1982	10.559173301461	0.305000000001
6	2106	11.97688174128	0.101666666667
6	2132	11.978548407947	0.204559439188
6	2243	12.180237296836	0.101666666667
6	2277	12.181903963503	0.103333333334
6	2331	12.282322302094	0.305000000001
6	2525	13.03606000842	0.203333333334
6	2617	13.239393341754	0.203333333334
6	2839	14.747206274853	0.305000000001
6	2951	14.871054702638	0.203333333334
6	3070	15.052206274854	0.305000000001
6	3133	15.277721369306	0.406666666668
6	3331	15.802467740773	0.406666666668
6	3334	15.80413440744	0.306666666668
6	3475	16.218153346763	0.101666666667
6	3489	16.21982001343	0.205000000001
6	3709	16.841553346767	0.306666666668
6	3808	17.043220013434	0.305000000001
6	3830	17.100406387589	0.101666666667
6	3937	17.303739720923	0.203333333334
6	4040	18.103068021724	0.305000000001
6	4243	18.501114349247	0.305000000001
6	4246	18.509447682582	0.415000000003
6	4321	18.713168021725	0.305000000001
6	4343	18.714834688392	0.306666666668
6	4664	20.700448627784	0.101666666667
6	4697	20.725849837065	0.305000000001
6	4778	20.827516503732	0.203333333334
6	4872	21.107115294452	0.305000000001
6	5056	22.217270218404	0.101666666667
6	5070	22.218936885071	0.306666666668
6	5245	23.142590123963	0.101666666667
6	5376	23.306905805999	0.203333333334
6	5524	23.510239139333	0.305000000001
6	5608	23.752590123965	0.406666666668
6	5713	23.978001285775	0.305000000001
6	5754	24.079667952442	0.203333333334
6	5954	24.566630124647	0.305000000001
6	5957	24.574963457982	0.415000000003
6	6160	26.051278055408	0.306666666668
6	6301	26.252944722075	0.305000000001
6	6490	26.526447810535	0.406666666668
6	6494	26.528114477202	0.205000000001
6	6580	26.658021846847	0.306666666668
6	6648	26.859688513514	0.305000000001
6	6677	27.258680730725	0.305000000001
6	6796	27.868814064059	0.305000000001
6	6818	27.870480730726	0.306666666668
6	7045	29.660429326354	0.203333333334
6	7116	29.863762659688	0.305000000001
6	7174	30.37116700145	0.101666666667
6	7316	30.777833668118	0.305000000001
6	7520	31.467949476657	0.306666666668
6	7639	31.669616143324	0.305000000001
6	7788	31.781919864864	0.205000000001
6	7906	31.978678151639	0.101666666667
6	7920	31.980344818306	0.306666666668
6	7935	31.983586531531	0.203333333334
6	8143	33.269607813465	0.306666666668
6	8237	33.674607813466	0.406666666668
6	8258	34.312295826085	0.203333333334
6	8341	34.719073603863	0.203333333334
6	8367	34.72074027053	0.205000000001
6	8599	35.839450620245	0.205000000001
6	8719	36.244450620246	0.305000000001
6	8754	37.706260631159	0.305000000001
6	8815	38.1927114159	0.203333333334
6	8852	38.316560631161	0.305300000001
6	9178	38.926560631163	0.305000000001
6	9424	39.277741667678	0.306666666668
6	9535	39.422989029007	0.306666666668
6	9564	39.479408334345	0.203333333334
6	9712	40.090585486831	0.101666666667
6	9831	40.294018820165	0.101766666667
6	10012	40.446285092969	0.306666666668
6	10055	40.497352153499	0.101666666667
7	208	6.257835112863	0.308333333335
7	294	6.45950177953	0.306666666668
7	314	6.518888858978	0.305000000001
7	434	6.772603927239	0.205000000001
7	504	6.872603927239	0.101666666667
7	650	7.12888885898	0.305000000001
7	678	7.132222192314	0.308333333335
7	833	7.489991690796	0.101666666667
7	1109	8.099991690798	0.406666666668
7	1173	8.274482930863	0.308333333335
7	1227	8.474482930863	0.203333333334
7	1269	9.138260643663	0.203333333334
7	1329	9.544927310331	0.203333333334
7	1634	9.951593976999	0.203333333334
7	1800	10.139502543842	0.308333333335
7	1912	10.339502543842	0.305000000001
7	1922	10.357506634794	0.408333333335
7	1985	10.560839968128	0.306666666668
7	2139	11.97898896876	0.205000000001
7	2193	12.07898896876	0.101666666667
7	2382	12.38357063017	0.305000000001
7	2438	12.586903963504	0.406666666668
7	2548	13.037726675087	0.205000000001
7	2618	13.239393341754	0.203333333334
7	2735	14.464343591526	0.203333333334
7	2749	14.543872941519	0.101666666667
7	2950	14.871054702638	0.203333333334
7	2974	14.872721369305	0.205000000001
7	3073	15.053872941521	0.306666666668
7	3127	15.192445518549	0.101666666667
7	3142	15.395801074105	0.101688888889
7	3249	15.599134407439	0.101666666667
7	3474	16.218153346763	0.203333333334
7	3553	16.421486680097	0.305000000001
7	3611	16.636553346766	0.101666666667
7	3811	17.044886680101	0.306666666668
7	3938	17.303739720923	0.203333333334
7	3957	17.310406387591	0.311666666669
7	3989	17.891081015912	0.101666666667
7	4009	18.094447682579	0.1017
7	4121	18.297781015913	0.101666666667
7	4347	18.716501355059	0.308333333335
7	4446	19.119834688393	0.406666666668
7	4544	20.522516503731	0.101666666667
7	4779	20.827516503732	0.203333333334
7	4801	20.903781961118	0.305000000001
7	4875	21.108781961119	0.306666666668
7	5080	22.220603551738	0.308333333335
7	5121	22.420603551738	0.305000000001
7	5138	22.73575679063	0.305000000001
7	5378	23.306905805999	0.101666666667
7	5390	23.308572472666	0.205000000001
7	5423	23.345923457297	0.305000000001
7	5446	23.347590123964	0.306666666668
7	5619	23.774667952441	0.101666666667
7	5699	23.95657456909	0.101666666667
7	5755	24.079667952442	0.203333333334
7	5767	24.159963457979	0.101722222222
7	5869	24.363296791313	0.101666666667
7	5996	25.712958921645	0.203333333334
7	6052	25.846278055407	0.101666666667
7	6191	26.119781143867	0.203488888888
7	6304	26.254611388742	0.306666666668
7	6456	26.453021846846	0.101666666667
7	6491	26.526447810535	0.203333333334
7	6651	26.861355180181	0.306666666668
7	6822	27.872147397393	0.308333333335
7	6921	28.275480730727	0.406666666668
7	7047	29.660429326354	0.101666666667
7	7059	29.662095993021	0.205000000001
7	7260	30.574500334784	0.101666666667
7	7272	30.576167001451	0.306666666668
7	7527	31.469616143324	0.308333333335
7	7642	31.671282809991	0.306666666668
7	7732	31.775344818305	0.101666666667
7	7755	31.780253198197	0.203333333334
7	7936	31.983586531531	0.203333333334
7	7980	32.182011484973	0.305000000001
7	8001	32.657674480129	0.305000000001
7	8120	33.267941146798	0.305000000001
7	8148	33.271274480132	0.308333333335
7	8342	34.719073603863	0.203333333334
7	8496	35.125740270531	0.406666666668
7	8595	35.837783953578	0.203333333334
7	8722	36.246117286913	0.306666666668
7	8768	37.818906125678	0.305000000001
7	9090	38.723227297829	0.101666666667
7	9101	38.724893964496	0.408333333335
7	9134	38.811022362338	0.305000000001
7	9429	39.279408334345	0.308333333335
7	9532	39.42132236234	0.305000000001
7	9538	39.424655695674	0.308333333335
7	9565	39.479408334345	0.203333333334
7	9702	40.041022362338	0.305000000001
7	10017	40.447951759636	0.308333333335
7	10027	40.457689029004	0.203333333334
7	10122	40.546285092969	0.101666666667
8	215	6.25950177953	0.310000000002
8	297	6.461168446197	0.308333333335
8	378	6.672603927239	0.105000000001
8	458	6.778325024127	0.305000000001
8	505	6.872603927239	0.101666666667
8	683	7.133888858981	0.310000000002
8	706	7.230555525647	0.101666666667
8	776	7.388325024129	0.305000000001
8	985	7.856267097373	0.101666666667
8	1058	7.999991690798	0.306666666668
8	1178	8.27614959753	0.310000000002
8	1201	8.374482930863	0.103333333334
8	1393	9.648260643665	0.103333333334
8	1537	9.851593976999	0.103333333334
8	1807	10.141169210509	0.310000000002
8	1857	10.239502543842	0.205000000001
8	1893	10.257506634794	0.308333333335
8	1988	10.562506634795	0.308333333335
8	2085	11.87898896876	0.105000000001
8	2194	12.07898896876	0.101666666667
8	2339	12.28357063017	0.205000000001
8	2422	12.486903963504	0.306666666668
8	2501	12.937726675087	0.105000000001
8	2586	13.139393341754	0.103333333334
8	2656	13.832106274851	0.305000000001
8	2702	14.442206274852	0.3051
8	2892	14.772721369305	0.105000000001
8	3033	14.972721369305	0.101666666667
8	3076	15.055539608188	0.308333333335
8	3136	15.294112185216	0.101666666667
8	3177	15.497467740772	0.101666666667
8	3206	15.499134407439	0.103333333334
8	3428	16.118153346763	0.103333333334
8	3532	16.321486680097	0.205000000001
8	3612	16.636553346766	0.101666666667
8	3814	17.046553346768	0.308333333335
8	3899	17.203739720923	0.103333333334
8	3932	17.210406387591	0.211666666669
8	4051	18.196114349246	0.101666666667
8	4122	18.297781015913	0.101666666667
8	4351	18.718168021726	0.310000000002
8	4434	19.019834688393	0.306666666668
8	4551	20.524183170398	0.103333333334
8	4707	20.727516503732	0.103333333334
8	4759	20.803781961118	0.205000000001
8	4878	21.110448627786	0.308333333335
8	5087	22.222270218405	0.310000000002
8	5108	22.320603551738	0.205000000001
8	5162	23.001872472665	0.101666666667
8	5280	23.205239139332	0.101666666667
8	5318	23.208572472666	0.105000000001
8	5355	23.247590123964	0.206666666668
8	5362	23.266334619106	0.203333333334
8	5487	23.447590123964	0.101666666667
8	5575	23.673001285774	0.203333333334
8	5758	24.081334619109	0.205000000001
8	5803	24.261630124646	0.101666666667
8	5870	24.363296791313	0.101666666667
8	6053	25.846278055407	0.101666666667
8	6269	26.223114477201	0.103333333334
8	6307	26.256278055409	0.308333333335
8	6420	26.426447810535	0.103333333334
8	6457	26.453021846846	0.101666666667
8	6654	26.863021846848	0.308333333335
8	6826	27.87381406406	0.310000000002
8	6909	28.175480730727	0.306666666668
8	7048	29.660429326354	0.101666666667
8	7079	29.665429326355	0.208333333335
8	7124	30.066055890339	0.203333333334
8	7205	30.472833668117	0.203333333334
8	7239	30.476167001451	0.206666666668
8	7405	31.266833707192	0.203333333334
8	7539	31.471282809991	0.310000000002
8	7645	31.672949476658	0.308333333335
8	7648	31.673678151638	0.203511111112
8	7690	31.680253198197	0.103333333334
8	7946	31.985253198198	0.205000000001
8	7967	32.082011484973	0.205000000001
8	8153	33.272941146799	0.310000000002
8	8168	33.369607813465	0.101666666667
8	8312	34.619073603863	0.103333333334
8	8483	35.025740270531	0.306666666668
8	8565	35.737783953578	0.103333333334
8	8725	36.24778395358	0.308333333335
8	9049	38.624893964496	0.308333333335
8	9091	38.723227297829	0.101666666667
8	9435	39.281075001012	0.310000000002
8	9504	39.379408334345	0.103333333334
8	9541	39.426322362341	0.310000000002
8	9655	39.834385092969	0.305000000001
8	9987	40.444618426302	0.305000000001
8	10022	40.449618426303	0.310000000002
8	10196	40.600685486833	0.205000000001
8	10212	40.605685486834	0.311666666669
9	241	6.267835112865	0.318333333337
9	304	6.469501779532	0.31666666667
9	454	6.77760392724	0.210000000002
9	588	6.975937260573	0.205000000001
9	689	7.142222192316	0.318333333337
9	752	7.333888858981	0.205000000001
9	857	7.494991690797	0.106666666668
9	1015	7.908325024133	0.215000000003
9	1184	8.284482930865	0.318333333337
9	1239	8.479482930864	0.208333333335
9	1297	9.341593976997	0.203333333334
9	1431	9.748260643665	0.203333333334
9	1462	9.751593976999	0.206666666668
9	1798	10.139502543842	0.105000000001
9	1811	10.149502543844	0.318333333337
9	1844	10.165839968129	0.21666666667
9	1991	10.57083996813	0.31666666667
9	2005	11.367300079869	0.203333333334
9	2028	11.773988968759	0.203355555556
9	2286	12.182322302094	0.205000000001
9	2293	12.18357063017	0.105000000001
9	2406	12.395237296839	0.215000000003
9	2412	12.426015563974	0.203333333334
9	2451	12.832726675086	0.203377777778
9	2630	13.244393341755	0.208333333335
9	2688	14.261010258192	0.203333333334
9	2765	14.547206274853	0.105000000001
9	2803	14.667721369304	0.203377777778
9	3079	15.063872941523	0.31666666667
9	3092	15.076054702639	0.205000000001
9	3270	15.602467740773	0.105000000001
9	3281	15.60413440744	0.208333333335
9	3343	15.811464457873	0.101666666667
9	3359	16.014820013429	0.101688888889
9	3497	16.221486680097	0.105000000001
9	3672	16.7398866801	0.205000000001
9	3740	16.8970174987	0.101666666667
9	3817	17.054886680103	0.31666666667
9	3829	17.100406387589	0.101666666667
9	3875	17.10540638759	0.106666666668
9	4132	18.29944768258	0.205000000001
9	4185	18.401114349247	0.205000000001
9	4359	18.726501355061	0.318333333337
9	4424	18.928168021728	0.215000000003
9	4640	20.627516503732	0.206666666668
9	4682	20.703781961118	0.105000000001
9	4791	20.832516503733	0.208333333335
9	4881	21.118781961121	0.31666666667
9	5078	22.220603551738	0.105000000001
9	5095	22.23060355174	0.318333333337
9	5152	22.900205805998	0.101666666667
9	5205	23.103572472665	0.1017
9	5269	23.147590123964	0.106666666668
9	5399	23.310239139333	0.105000000001
9	5540	23.550923457298	0.205000000001
9	5635	23.778001285775	0.105000000001
9	5761	24.083001285776	0.206666666668
9	5880	24.36496345798	0.205000000001
9	5929	24.466630124647	0.205000000001
9	6084	25.916292254979	0.203333333334
9	6121	25.949611388741	0.205000000001
9	6310	26.264611388744	0.31666666667
9	6318	26.323114477201	0.203333333334
9	6349	26.326447810535	0.206666666668
9	6539	26.55635518018	0.205000000001
9	6657	26.871355180183	0.31666666667
9	6834	27.882147397395	0.318333333337
9	6899	28.083814064062	0.215000000003
9	7070	29.663762659688	0.206666666668
9	7099	29.763762659688	0.205000000001
9	7198	30.376167001451	0.106666666668
9	7279	30.577833668118	0.105000000001
9	7383	31.170208753751	0.203333333334
9	7566	31.479616143326	0.318333333337
9	7595	31.576919864863	0.203377777778
9	7695	31.681282809993	0.31666666667
9	7780	31.780344818306	0.106666666668
9	7928	31.982011484973	0.105000000001
9	7950	31.986919864865	0.206666666668
9	8159	33.281274480134	0.318333333337
9	8206	33.472941146799	0.205000000001
9	8379	34.724073603864	0.208333333335
9	8468	34.934073603866	0.215000000003
9	8608	35.842783953579	0.208333333335
9	8728	36.256117286915	0.31666666667
9	8899	38.396044749234	0.203333333334
9	8996	38.533227297831	0.21666666667
9	9148	38.826560631163	0.205000000001
9	9441	39.289408334347	0.318333333337
9	9552	39.434655695676	0.318333333337
9	9578	39.484408334346	0.208333333335
9	10032	40.457951759638	0.318333333337
9	10072	40.500685486833	0.105000000001
9	10105	40.510685486835	0.21666666667
9	10138	40.549618426303	0.105000000001

