version 2
run General-29-20190610-18:03:59-9632
attr configname General
attr datetime 20190610-18:03:59
attr experiment General
attr inifile omnetpp.ini
attr iterationvars ""
attr iterationvarsf ""
attr measurement ""
attr network networks.Net5
attr processid 9632
attr repetition 29
attr replication #29
attr resultdir results
attr runnumber 29
attr seedset 29
param **.appType "\"App\""
param **.app.packetLength "1500 bytes"
param **.app.totalNodes 10
param **.destAddresses "\"0\""
param **.sendIaTime "uniform(5s, 10s)"
param **.sendIaTimeEvil 10ms

vector 0 Net5.rte[3].app endToEndDelay:vector ETV
attr interpolationmode none
attr title "end-to-end delay of arrived packets, vector"
attr unit s
vector 1 Net5.rte[4].app endToEndDelay:vector ETV
attr interpolationmode none
attr title "end-to-end delay of arrived packets, vector"
attr unit s
vector 2 Net5.rte[0].app endToEndDelay:vector ETV
attr interpolationmode none
attr title "end-to-end delay of arrived packets, vector"
attr unit s
vector 3 Net5.rte[9].app endToEndDelay:vector ETV
attr interpolationmode none
attr title "end-to-end delay of arrived packets, vector"
attr unit s
vector 4 Net5.rte[5].app endToEndDelay:vector ETV
attr interpolationmode none
attr title "end-to-end delay of arrived packets, vector"
attr unit s
vector 5 Net5.rte[8].app endToEndDelay:vector ETV
attr interpolationmode none
attr title "end-to-end delay of arrived packets, vector"
attr unit s
vector 6 Net5.rte[2].app endToEndDelay:vector ETV
attr interpolationmode none
attr title "end-to-end delay of arrived packets, vector"
attr unit s
vector 7 Net5.rte[6].app endToEndDelay:vector ETV
attr interpolationmode none
attr title "end-to-end delay of arrived packets, vector"
attr unit s
vector 8 Net5.rte[7].app endToEndDelay:vector ETV
attr interpolationmode none
attr title "end-to-end delay of arrived packets, vector"
attr unit s
vector 9 Net5.rte[1].app endToEndDelay:vector ETV
attr interpolationmode none
attr title "end-to-end delay of arrived packets, vector"
attr unit s
0	11	5.569615239942	0.203333333334
0	31	5.97628190661	0.203333333334
0	188	6.384615239945	0.205000000001
0	297	6.832863160535	0.103333333334
0	366	6.935828756973	0.101666666667
0	412	7.036196493869	0.205000000001
0	472	7.139173201418	0.101666666667
0	513	7.144173201419	0.106666666668
0	705	7.381470644999	0.105000000001
0	796	7.583137311666	0.103333333334
0	820	7.654746431358	0.203333333334
0	887	8.061413098026	0.203333333334
0	1132	8.388628628709	0.210000000002
0	1161	8.473079764695	0.208333333335
0	1248	8.586961962042	0.103333333334
0	1446	9.836219336724	0.105000000001
0	1642	10.244552670059	0.208333333335
0	1734	10.44049992248	0.206666666668
0	1854	10.643833255814	0.105000000001
0	1910	10.665448883076	0.205000000001
0	1977	10.767115549743	0.103333333334
0	2043	12.227715277545	0.101666666667
0	2084	12.431081944212	0.101666666667
0	2122	12.434415277546	0.105000000001
0	2351	13.691425009158	0.205000000001
0	2386	13.793091675825	0.103333333334
0	2637	14.699794955424	0.210000000002
0	2670	14.712860790075	0.103333333334
0	2812	14.901461622091	0.208333333335
0	2889	15.017860790076	0.205000000001
0	2921	15.468863044366	0.203333333334
0	2961	15.875574155478	0.203377777778
0	3173	16.13204555612	0.205000000001
0	3243	16.233712222787	0.103333333334
0	3273	16.283907488813	0.205000000001
0	3446	17.864178213411	0.206666666668
0	3505	18.067511546745	0.105000000001
0	3571	18.224118005451	0.203333333334
0	3736	18.547472441794	0.205000000001
0	3776	18.630851338785	0.2034
0	3883	18.750805775128	0.306666666668
0	4093	19.029482175756	0.103333333334
0	4122	19.036148842424	0.211666666669
0	4138	19.042518005454	0.208333333335
0	4261	22.167672296652	0.103333333334
0	4398	22.472672296653	0.205000000001
0	4492	23.190443254561	0.105000000001
0	4627	23.598776587896	0.208333333335
0	4736	23.941082219387	0.103333333334
0	4829	24.144415552721	0.205000000001
0	4984	26.03984102641	0.210000000002
0	5056	26.238174359743	0.103333333334
0	5236	27.717811457546	0.101666666667
0	5258	27.792141371115	0.210000000002
0	5371	27.921211457546	0.101666666667
0	5409	27.92454479088	0.105000000001
0	5441	27.992141371115	0.105000000001
0	5727	28.219508532587	0.206666666668
0	5809	28.421175199254	0.306666666668
0	5822	28.455603581819	0.203333333334
0	5885	28.629575199255	0.105000000001
0	5985	28.831241865922	0.103333333334
0	6007	28.862470248487	0.203533333334
0	6189	29.270803581822	0.205000000001
0	6376	29.763735216969	0.205000000001
0	6378	29.763735216969	0.306666666668
0	6499	32.152517292237	0.105000000001
0	6630	32.560850625572	0.208333333335
0	6772	34.480287257239	0.106666666668
0	7103	34.883620590573	0.205000000001
0	7154	34.908500513255	0.103333333334
0	7189	34.916598585998	0.103333333334
0	7191	34.916598585998	0.306666666668
0	7326	35.115167179923	0.208333333335
0	7428	35.546914005009	0.105000000001
0	7522	35.748580671676	0.103333333334
0	7633	36.409519478374	0.103333333334
0	7760	36.816186145042	0.306666666668
0	7790	37.505118696417	0.203333333334
0	7873	37.911963140863	0.203333333334
0	7909	37.915296474197	0.206666666668
0	7966	38.064675241907	0.203333333334
0	8005	38.471497464129	0.203488888888
0	8169	38.879830797464	0.205000000001
0	8369	39.692646752676	0.103333333334
0	8371	39.692646752676	0.306666666668
0	8455	39.977592011414	0.203333333334
0	8533	40.352780442873	0.105000000001
0	8554	40.384503122526	0.203577777778
0	8815	40.761113776208	0.208333333335
0	8838	40.792836455861	0.205000000001
0	9039	42.250181784383	0.103333333334
0	9068	42.256848451051	0.211666666669
0	9186	42.538471716898	0.210000000002
0	9266	42.738471716898	0.105000000001
0	9465	43.481031104173	0.210000000002
0	9552	43.679364437506	0.103333333334
0	9738	44.309864754032	0.210000000002
0	9832	44.511531420699	0.208333333335
0	9868	44.664313845269	0.203333333334
0	9886	44.851560829773	0.101666666667
0	9983	45.071224956381	0.203333333334
0	10031	45.077891623049	0.210000000002
0	10269	45.691492721918	0.210000000002
0	10413	45.889826055251	0.205000000001
0	10442	45.970483307641	0.210000000002
0	10545	46.270483307641	0.205000000001
0	10738	48.377606593183	0.210000000002
0	10855	48.577606593183	0.105000000001
0	11064	48.870920348907	0.308333333335
0	11185	49.044980897368	0.205000000001
0	11219	49.075920348908	0.208333333335
0	11249	49.146647564035	0.103333333334
0	11461	50.532101228833	0.205000000001
0	11506	50.6337678955	0.103333333334
0	11625	50.981594104184	0.103333333334
0	11704	51.184927437518	0.205000000001
0	11738	51.966810998706	0.101666666667
0	11787	52.170277665373	0.101666666667
0	11822	52.175277665374	0.106666666668
0	12017	52.563327596021	0.103333333334
0	12186	52.969994262689	0.306666666668
0	12302	53.387930460456	0.210000000002
0	12416	53.687930460456	0.205000000001
0	12544	54.389322224975	0.205000000001
0	12658	54.69765555831	0.208333333335
0	12786	55.279785953458	0.206666666668
0	12842	55.483119286792	0.105000000001
0	13021	56.481506593825	0.103333333334
0	13155	57.280634802029	0.105000000001
0	13249	57.482301468696	0.103333333334
0	13397	57.869111538562	0.103333333334
0	13519	58.072444871896	0.205000000001
0	13626	58.377614824867	0.103333333334
1	21	5.772948573276	0.203333333334
1	102	6.179615239944	0.203333333334
1	130	6.181281906611	0.205000000001
1	352	6.932863160535	0.101666666667
1	396	6.939529827203	0.210000000002
1	648	7.342506534752	0.203333333334
1	668	7.34917320142	0.311666666669
1	706	7.381470644999	0.105000000001
1	839	7.686470645	0.206666666668
1	1021	8.266413098027	0.205000000001
1	1135	8.390295295376	0.211666666669
1	1164	8.474746431362	0.210000000002
1	1281	8.690295295376	0.206666666668
1	1378	9.623799922477	0.305000000001
1	1487	9.937886003391	0.206666666668
1	1597	10.233833255812	0.305033333334
1	1645	10.246219336726	0.210000000002
1	1826	10.563782216409	0.103333333334
1	1985	10.76878221641	0.105000000001
1	2006	10.848833255815	0.310000000002
1	2179	12.536081944213	0.206666666668
1	2204	12.634415277546	0.203333333334
1	2234	13.079736120267	0.203333333334
1	2254	13.486425009157	0.203355555556
1	2423	13.896425009159	0.206666666668
1	2485	14.406127456741	0.203333333334
1	2641	14.701461622091	0.211666666669
1	2749	14.812860790075	0.203333333334
1	2786	14.817860790076	0.208333333335
1	2815	14.903128288758	0.210000000002
1	2927	15.520290000563	0.203333333334
1	2994	15.927045556119	0.203422222222
1	3103	16.078907488812	0.203333333334
1	3203	16.180574155479	0.101666666667
1	3294	16.337045556121	0.206666666668
1	3335	17.047444880075	0.305000000001
1	3363	17.657511546743	0.305066666667
1	3536	18.139139108459	0.101666666667
1	3591	18.272511546746	0.310000000002
1	3604	18.342472441793	0.101666666667
1	3746	18.549139108461	0.105000000001
1	3770	18.621126620199	0.101666666667
1	3892	18.824482175755	0.101688888889
1	3953	18.835851338786	0.205000000001
1	4104	19.031148842423	0.105000000001
1	4141	19.044184672121	0.210000000002
1	4207	21.860827852206	0.203333333334
1	4294	22.267672296652	0.203333333334
1	4334	22.272672296653	0.208333333335
1	4523	23.292109921228	0.206666666668
1	4630	23.600443254563	0.210000000002
1	4779	24.041082219387	0.101666666667
1	4817	24.047748886055	0.210000000002
1	4987	26.041507693077	0.211666666669
1	5089	26.341507693077	0.206666666668
1	5261	27.793808037782	0.211666666669
1	5538	28.026211457547	0.206666666668
1	5597	28.114508532586	0.101666666667
1	5660	28.12454479088	0.203333333334
1	5686	28.197141371116	0.310000000002
1	5728	28.219508532587	0.105000000001
1	5906	28.658936915153	0.203333333334
1	5945	28.731241865922	0.206666666668
1	5993	28.832908532589	0.105000000001
1	6093	29.065803581821	0.203333333334
1	6121	29.067470248488	0.205000000001
1	6285	29.562068550302	0.105000000001
1	6319	29.660401883635	0.101666666667
1	6530	32.254183958904	0.206666666668
1	6633	32.562517292239	0.210000000002
1	6693	34.068287257237	0.305000000001
1	6879	34.678620590572	0.305000000001
1	6915	34.68528725724	0.311666666669
1	6949	34.714931919331	0.105000000001
1	7163	34.910167179922	0.105000000001
1	7285	35.019931919332	0.206666666668
1	7329	35.11683384659	0.210000000002
1	7482	35.648580671676	0.206666666668
1	7530	35.750247338343	0.105000000001
1	7647	36.412852811708	0.106666666668
1	7714	36.614519478375	0.105000000001
1	7841	37.810296474196	0.101666666667
1	7975	38.115296474197	0.203333333334
1	8077	38.674830797463	0.203333333334
1	8131	38.77649746413	0.101666666667
1	8269	39.490980086009	0.105000000001
1	8421	39.79598008601	0.206666666668
1	8473	40.180925344748	0.203333333334
1	8597	40.45444710954	0.206666666668
1	8688	40.58783645586	0.203333333334
1	8716	40.589503122527	0.205000000001
1	8818	40.762780442875	0.210000000002
1	8895	41.841770673271	0.101666666667
1	8917	42.045181784382	0.101744444444
1	9050	42.25184845105	0.105000000001
1	9189	42.540138383565	0.211666666669
1	9337	42.943471716899	0.310000000002
1	9468	43.48269777084	0.211666666669
1	9591	43.78269777084	0.206666666668
1	9742	44.311531420699	0.211666666669
1	9835	44.513198087366	0.210000000002
1	10034	45.079558289716	0.211666666669
1	10112	45.274558289715	0.203333333334
1	10119	45.277870499694	0.203333333334
1	10228	45.68482605525	0.203333333334
1	10273	45.693159388585	0.211666666669
1	10445	45.972149974308	0.211666666669
1	10515	46.167149974307	0.101666666667
1	10741	48.37927325985	0.211666666669
1	10755	48.433069786255	0.203333333334
1	10911	48.66925368224	0.106666666668
1	10995	48.782606593184	0.310000000002
1	11004	48.839980897367	0.203577777778
1	11222	49.077587015575	0.210000000002
1	11297	49.249980897369	0.206666666668
1	11408	50.430434562166	0.103333333334
1	11514	50.635434562167	0.105000000001
1	11549	50.776427437517	0.101666666667
1	11594	50.979927437517	0.101666666667
1	11642	50.984927437518	0.106666666668
1	11934	52.373610998707	0.203333333334
1	11954	52.380277665375	0.311666666669
1	12088	52.668327596022	0.208333333335
1	12124	52.768327596022	0.105000000001
1	12305	53.389597127123	0.211666666669
1	12382	53.584597127122	0.101666666667
1	12512	54.287655558308	0.103333333334
1	12661	54.699322224977	0.210000000002
1	12745	55.174785953457	0.101666666667
1	12913	55.688119286793	0.310000000002
1	13061	56.584839927159	0.206666666668
1	13209	57.382301468696	0.206666666668
1	13257	57.483968135363	0.105000000001
1	13453	57.969111538562	0.101666666667
1	13493	57.97577820523	0.210000000002
1	13677	58.482614824868	0.208333333335
1	13811	59.207381764859	0.203333333334
2	71	6.077948573277	0.101666666667
2	205	6.484615239945	0.305000000001
2	300	6.834162090306	0.101666666667
2	349	6.932863160535	0.203333333334
2	416	7.037506534751	0.101677777778
2	469	7.136196493869	0.305000000001
2	553	7.240839868085	0.101666666667
2	759	7.481470644999	0.205000000001
2	832	7.683137311666	0.203333333334
2	931	8.163079764693	0.101666666667
2	1201	8.485295295375	0.306666666668
2	1223	8.569746431361	0.305000000001
2	1274	8.686961962042	0.203333333334
2	1471	9.928799922478	0.305000000001
2	1484	9.936219336724	0.205000000001
2	1694	10.341219336725	0.305000000001
2	1777	10.538833255813	0.305000000001
2	1799	10.54049992248	0.306666666668
2	1966	10.765448883076	0.305000000001
2	2017	10.867115549743	0.203333333334
2	2155	12.532748610879	0.101666666667
2	2169	12.534415277546	0.205000000001
2	2377	13.791425009158	0.305000000001
2	2416	13.893091675825	0.203333333334
2	2704	14.79646162209	0.306666666668
2	2750	14.812860790075	0.203333333334
2	2868	14.998128288757	0.305000000001
2	2902	15.117860790076	0.305000000001
2	3034	15.977240822145	0.101666666667
2	3234	16.23204555612	0.305000000001
2	3287	16.333712222787	0.203333333334
2	3308	16.383907488813	0.305000000001
2	3349	17.352444880076	0.305000000001
2	3456	17.962511546744	0.305000000001
2	3478	17.964178213411	0.306666666668
2	3811	18.647472441794	0.305000000001
2	3850	18.732518005452	0.101666666667
2	3971	18.850805775128	0.406666666668
2	4157	19.129482175756	0.203333333334
2	4170	19.136148842424	0.311666666669
2	4173	19.139482175758	0.305297503639
2	4295	22.267672296652	0.203333333334
2	4417	22.572672296653	0.305000000001
2	4520	23.290443254561	0.205000000001
2	4650	23.695443254562	0.305000000001
2	4776	24.041082219387	0.203333333334
2	4847	24.244415552721	0.305000000001
2	5024	26.136507693076	0.306666666668
2	5082	26.338174359743	0.203333333334
2	5135	27.277041371113	0.305000000001
2	5314	27.887141371114	0.305000000001
2	5336	27.888808037781	0.306666666668
2	5514	28.022878124213	0.101666666667
2	5528	28.02454479088	0.205000000001
2	5763	28.31784186592	0.305000000001
2	5828	28.521175199254	0.406666666668
2	5940	28.729575199255	0.205000000001
2	6042	28.931241865922	0.203333333334
2	6062	28.964136915154	0.101666666667
2	6208	29.370803581822	0.305000000001
2	6396	29.863735216969	0.406666666668
2	6399	29.865401883636	0.306666666668
2	6527	32.252517292237	0.205000000001
2	6647	32.657517292238	0.305000000001
2	6674	33.763287257236	0.305000000001
2	6721	34.373620590571	0.305333333334
2	7229	34.983620590573	0.305000000001
2	7236	35.008500513255	0.203333333334
2	7268	35.016598585998	0.406666666668
2	7276	35.018265252665	0.205000000001
2	7353	35.211833846589	0.305000000001
2	7477	35.646914005009	0.205000000001
2	7550	35.848580671676	0.203333333334
2	7655	36.509519478374	0.203333333334
2	7769	36.916186145042	0.406666666668
2	7931	38.01362980753	0.101666666667
2	7945	38.015296474197	0.306666666668
2	8045	38.573164130796	0.101666666667
2	8186	38.979830797464	0.305000000001
2	8411	39.792646752676	0.406666666668
2	8415	39.794313419343	0.205000000001
2	8594	40.452780442873	0.205000000001
2	8621	40.486169789193	0.101666666667
2	8851	40.857780442874	0.305000000001
2	8866	40.892836455861	0.305000000001
2	8911	42.02330505023	0.305000000001
2	9107	42.350181784383	0.203333333334
2	9123	42.356848451051	0.311666666669
2	9207	42.633471716897	0.305000000001
2	9229	42.635138383564	0.306666666668
2	9513	43.577697770839	0.306666666668
2	9584	43.779364437506	0.203333333334
2	9771	44.406531420698	0.306666666668
2	9853	44.608198087365	0.305000000001
2	10060	45.172891623048	0.101666666667
2	10074	45.174558289715	0.306666666668
2	10336	45.788159388584	0.306666666668
2	10459	45.989826055251	0.305000000001
2	10487	46.067149974307	0.306666666668
2	10557	46.370483307641	0.305000000001
2	10604	47.862406593182	0.305000000001
2	10765	48.472606593182	0.305000000001
2	10787	48.474273259849	0.306666666668
2	11127	48.970920348907	0.408333333335
2	11240	49.144980897368	0.305000000001
2	11273	49.172587015574	0.305000000001
2	11290	49.246647564035	0.203333333334
2	11495	50.632101228833	0.305000000001
2	11536	50.7337678955	0.203333333334
2	11656	51.081594104184	0.203333333334
2	11717	51.284927437518	0.305000000001
2	11728	51.865144332039	0.101666666667
2	11750	52.068610998706	0.1018
2	11868	52.27194433204	0.101666666667
2	12053	52.663327596021	0.203333333334
2	12199	53.069994262689	0.406666666668
2	12348	53.484597127122	0.306666666668
2	12432	53.787930460456	0.305000000001
2	12567	54.489322224975	0.305000000001
2	12675	54.767852620122	0.305000000001
2	12681	54.794322224976	0.305000000001
2	12795	55.378119286791	0.305000000001
2	12817	55.379785953458	0.306666666668
2	13054	56.581506593825	0.203333333334
2	13204	57.380634802029	0.205000000001
2	13279	57.582301468696	0.203333333334
2	13450	57.969111538562	0.203333333334
2	13548	58.172444871896	0.305000000001
2	13666	58.477614824867	0.203333333334
3	73	6.077948573277	0.101666666667
3	192	6.386281906612	0.206666666668
3	353	6.932863160535	0.101666666667
3	397	6.939529827203	0.210000000002
3	463	7.073137311664	0.203333333334
3	556	7.240839868085	0.101666666667
3	605	7.255839868088	0.218333333337
3	733	7.479803978332	0.203333333334
3	772	7.486470645	0.210000000002
3	933	8.163079764693	0.101666666667
3	1220	8.498628628711	0.320000000004
3	1235	8.583079764697	0.318333333337
3	1287	8.691961962043	0.208333333335
3	1493	9.939552670058	0.208333333335
3	1714	10.354552670061	0.318333333337
3	1735	10.44049992248	0.206666666668
3	1819	10.562115549742	0.101666666667
3	1955	10.755499922483	0.21666666667
3	2027	10.872115549744	0.208333333335
3	2158	12.532748610879	0.101666666667
3	2186	12.53774861088	0.208333333335
3	2244	13.283069453601	0.203333333334
3	2326	13.689758342491	0.203333333334
3	2363	13.694758342492	0.208333333335
3	2465	14.202794123407	0.203333333334
3	2567	14.609527456741	0.2034
3	2744	14.809794955426	0.320000000004
3	2880	15.011461622093	0.318333333337
3	2893	15.019527456743	0.206666666668
3	3036	15.977240822145	0.101666666667
3	3185	16.135378889454	0.208333333335
3	3204	16.180574155479	0.101666666667
3	3300	16.338712222788	0.208333333335
3	3447	17.864178213411	0.206666666668
3	3568	18.179178213414	0.21666666667
3	3748	18.549139108461	0.206666666668
3	3823	18.650805775128	0.206666666668
3	3852	18.732518005452	0.101666666667
3	4105	19.031148842423	0.206666666668
3	4167	19.134482175757	0.208333333335
3	4185	19.152518005456	0.318333333337
3	4196	21.657494518872	0.203333333334
3	4217	22.064338963318	0.203511111112
3	4402	22.47433896332	0.206666666668
3	4405	22.475376587892	0.305000000001
3	4442	23.08544325456	0.305066666667
3	4662	23.708776587898	0.318333333337
3	4780	24.041082219387	0.101666666667
3	4818	24.047748886055	0.210000000002
3	5043	26.149841026412	0.320000000004
3	5095	26.343174359744	0.208333333335
3	5187	27.616144790879	0.101666666667
3	5281	27.819544790879	0.101733333333
3	5356	27.902141371117	0.320000000004
3	5517	28.022878124213	0.101666666667
3	5586	28.103808037784	0.21666666667
3	5598	28.114508532586	0.101666666667
3	5782	28.321175199254	0.206666666668
3	5953	28.732908532589	0.208333333335
3	6052	28.936241865923	0.208333333335
3	6064	28.964136915154	0.101666666667
3	6193	29.272470248489	0.206666666668
3	6320	29.660401883635	0.101666666667
3	6352	29.665401883636	0.208333333335
3	6420	31.437383958902	0.305000000001
3	6449	32.047517292236	0.305133333333
3	6659	32.670850625574	0.318333333337
3	6837	34.591953923908	0.218333333337
3	7078	34.818265252665	0.208333333335
3	7107	34.88528725724	0.206666666668
3	7259	35.013500513256	0.208333333335
3	7295	35.021598585999	0.208333333335
3	7308	35.03513622723	0.203333333334
3	7365	35.225167179925	0.318333333337
3	7378	35.441914005008	0.203444444444
3	7560	35.853580671677	0.208333333335
3	7691	36.514519478375	0.208333333335
3	7742	36.716186145042	0.206666666668
3	7842	37.810296474196	0.101666666667
3	7934	38.01362980753	0.101666666667
3	8047	38.573164130796	0.101666666667
3	8132	38.77649746413	0.101666666667
3	8200	39.182468974896	0.203333333334
3	8295	39.589313419342	0.203333333334
3	8333	39.594313419343	0.208333333335
3	8603	40.456113776207	0.208333333335
3	8623	40.486169789193	0.101666666667
3	8842	40.794503122528	0.206666666668
3	8863	40.87111377621	0.318333333337
3	9051	42.25184845105	0.206666666668
3	9117	42.355181784384	0.208333333335
3	9249	42.6484717169	0.320000000004
3	9323	42.850138383567	0.21666666667
3	9535	43.591031104175	0.320000000004
3	9597	43.784364437507	0.208333333335
3	9811	44.419864754034	0.320000000004
3	9865	44.621531420701	0.318333333337
3	9933	44.95322749644	0.101666666667
3	10063	45.172891623048	0.101666666667
3	10102	45.187891623051	0.320000000004
3	10365	45.80149272192	0.320000000004
3	10417	45.891492721918	0.206666666668
3	10504	46.080483307643	0.320000000004
3	10516	46.167149974307	0.101666666667
3	10807	48.487606593185	0.320000000004
3	10952	48.689273259852	0.21666666667
3	10973	48.76925368224	0.206666666668
3	11197	49.048314230702	0.208333333335
3	11285	49.18592034891	0.318333333337
3	11303	49.251647564036	0.208333333335
3	11401	50.428767895499	0.101666666667
3	11484	50.602902177189	0.203333333334
3	11546	50.738767895501	0.208333333335
3	11690	51.086594104185	0.208333333335
3	11708	51.186594104185	0.206666666668
3	11744	52.053172040465	0.203333333334
3	11871	52.27194433204	0.101666666667
3	11920	52.286944332043	0.218333333337
3	11963	52.459994262687	0.203488888888
3	12162	52.869994262689	0.206666666668
3	12365	53.497930460458	0.320000000004
3	12383	53.584597127122	0.101666666667
3	12505	54.285988891641	0.101666666667
3	12693	54.807655558312	0.318333333337
3	12746	55.174785953457	0.101666666667
3	12899	55.594785953461	0.21666666667
3	13067	56.586506593826	0.208333333335
3	13085	56.768745913138	0.203333333334
3	13105	57.175634802028	0.203555555556
3	13289	57.587301468697	0.208333333335
3	13454	57.969111538562	0.101666666667
3	13494	57.97577820523	0.210000000002
3	13687	58.484281491535	0.210000000002
4	88	6.081281906611	0.105000000001
4	169	6.284615239945	0.105000000001
4	335	6.86980397833	0.203333333334
4	379	6.936196493869	0.206666666668
4	413	7.036196493869	0.205000000001
4	564	7.242506534752	0.103333333334
4	591	7.24917320142	0.211666666669
4	612	7.276470644998	0.203333333334
4	838	7.686470645	0.206666666668
4	948	8.166413098027	0.105000000001
4	1063	8.290295295376	0.111666666669
4	1101	8.374746431362	0.110000000002
4	1280	8.690295295376	0.206666666668
4	1492	9.939552670058	0.208333333335
4	1578	10.146219336726	0.110000000002
4	1659	10.257093327519	0.203333333334
4	1691	10.34049992248	0.106666666668
4	1883	10.663782216409	0.203333333334
4	1915	10.667115549743	0.206666666668
4	1941	10.748833255815	0.210000000002
4	2168	12.534415277546	0.103333333334
4	2190	12.539415277547	0.210000000002
4	2308	13.591425009158	0.105000000001
4	2422	13.896425009159	0.206666666668
4	2552	14.601461622091	0.111666666669
4	2726	14.803128288758	0.110000000002
4	2779	14.816194123409	0.206666666668
4	2849	14.917860790076	0.105000000001
4	3044	15.978907488812	0.103333333334
4	3084	16.03204555612	0.105000000001
4	3274	16.283907488813	0.205000000001
4	3293	16.337045556121	0.206666666668
4	3422	17.764178213411	0.106666666668
4	3554	18.172511546746	0.210000000002
4	3691	18.447472441794	0.105000000001
4	3826	18.652472441795	0.208333333335
4	3837	18.722793286866	0.101666666667
4	3867	18.735851338786	0.105000000001
4	3978	18.926148842422	0.101666666667
4	4023	18.931148842423	0.106666666668
4	4060	18.944184672121	0.110000000002
4	4324	22.271005629986	0.206666666668
4	4369	22.372672296653	0.105000000001
4	4528	23.293776587895	0.208333333335
4	4596	23.500443254563	0.110000000002
4	4801	24.044415552721	0.206666666668
4	4830	24.144415552721	0.205000000001
4	4953	25.941507693077	0.111666666669
4	5088	26.341507693077	0.206666666668
4	5217	27.693808037782	0.111666666669
4	5527	28.02454479088	0.103333333334
4	5549	28.029544790881	0.210000000002
4	5572	28.097141371116	0.210000000002
4	5715	28.21784186592	0.205000000001
4	5772	28.319508532587	0.204901569382
4	5788	28.322841865921	0.208333333335
4	5914	28.727908532588	0.203333333334
4	5952	28.732908532589	0.208333333335
4	6079	28.967470248488	0.105000000001
4	6164	29.170803581822	0.105000000001
4	6353	29.665401883636	0.208333333335
4	6377	29.763735216969	0.205000000001
4	6535	32.255850625571	0.208333333335
4	6603	32.462517292239	0.110000000002
4	6823	34.58528725724	0.211666666669
4	6840	34.601778291032	0.101666666667
4	6992	34.783620590573	0.105000000001
4	7005	34.805167179921	0.101722222222
4	7079	34.818265252665	0.208333333335
4	7273	35.01683384659	0.110000000002
4	7284	35.019931919332	0.206666666668
4	7368	35.238469560564	0.203333333334
4	7451	35.645247338342	0.203333333334
4	7489	35.650247338343	0.208333333335
4	7563	35.899430589484	0.203333333334
4	7583	36.30618614504	0.203422222222
4	7745	36.717852811709	0.208333333335
4	7901	37.91362980753	0.205000000001
4	7944	38.015296474197	0.103333333334
4	8055	38.574830797463	0.103333333334
4	8170	38.879830797464	0.205000000001
4	8334	39.594313419343	0.208333333335
4	8420	39.79598008601	0.206666666668
4	8602	40.456113776207	0.208333333335
4	8638	40.489503122527	0.105000000001
4	8752	40.662780442875	0.110000000002
4	8790	40.692836455861	0.105000000001
4	8905	41.943437339938	0.101666666667
4	8958	42.146848451049	0.101666666667
4	9003	42.15184845105	0.106666666668
4	9151	42.440138383565	0.111666666669
4	9309	42.843471716899	0.210000000002
4	9428	43.38269777084	0.111666666669
4	9590	43.78269777084	0.206666666668
4	9682	44.211531420699	0.111666666669
4	9793	44.413198087366	0.110000000002
4	9964	44.979558289716	0.111666666669
4	10073	45.174558289715	0.103333333334
4	10209	45.593159388585	0.111666666669
4	10345	45.789826055251	0.105000000001
4	10392	45.872149974308	0.111666666669
4	10546	46.270483307641	0.205000000001
4	10699	48.27927325985	0.111666666669
4	10938	48.682606593184	0.210000000002
4	10977	48.772587015574	0.210000000002
4	11104	48.944980897368	0.105000000001
4	11143	48.977587015575	0.110000000002
4	11296	49.249980897369	0.206666666668
4	11335	50.12359011772	0.203333333334
4	11386	50.399568843855	0.203333333334
4	11434	50.530434562166	0.203333333334
4	11466	50.5337678955	0.206666666668
4	11528	50.67476077085	0.101666666667
4	11555	50.87826077085	0.101833333333
4	11678	51.084927437518	0.105000000001
4	11879	52.273610998707	0.103333333334
4	11906	52.280277665375	0.211666666669
4	12081	52.666660929355	0.206666666668
4	12165	52.871660929356	0.208333333335
4	12267	53.289597127123	0.111666666669
4	12417	53.687930460456	0.205000000001
4	12547	54.390988891642	0.206666666668
4	12627	54.599322224977	0.110000000002
4	12780	55.278119286791	0.205000000001
4	12885	55.588119286793	0.210000000002
4	13060	56.584839927159	0.206666666668
4	13095	56.972079246472	0.203333333334
4	13178	57.378968135362	0.203333333334
4	13216	57.383968135363	0.208333333335
4	13476	57.972444871896	0.206666666668
4	13520	58.072444871896	0.205000000001
4	13672	58.480948158201	0.206666666668
5	89	6.081281906611	0.105000000001
5	189	6.384615239945	0.205000000001
5	208	6.526196493867	0.101666666667
5	224	6.729529827201	0.101666666667
5	377	6.936196493869	0.105000000001
5	570	7.244173201419	0.105000000001
5	602	7.254173201421	0.21666666667
5	767	7.484803978333	0.208333333335
5	845	7.688137311667	0.208333333335
5	873	7.873595295373	0.305000000001
5	949	8.166413098027	0.105000000001
5	1178	8.483628628708	0.305000000001
5	1217	8.496961962044	0.318333333337
5	1232	8.58141309803	0.31666666667
5	1321	9.121186003388	0.305000000001
5	1392	9.731219336723	0.305033333334
5	1711	10.352886003394	0.31666666667
5	1728	10.438833255813	0.205000000001
5	1834	10.565448883076	0.105000000001
5	1952	10.753833255816	0.215000000003
5	2024	10.870448883077	0.206666666668
5	2037	12.126048610878	0.101666666667
5	2049	12.329415277545	0.1017
5	2177	12.536081944213	0.105000000001
5	2356	13.693091675825	0.206666666668
5	2429	13.898091675826	0.208333333335
5	2740	14.808128288759	0.318333333337
5	2794	14.819527456743	0.210000000002
5	2877	15.009794955426	0.31666666667
5	2890	15.017860790076	0.205000000001
5	2947	15.723623333897	0.203333333334
5	3058	15.982240822146	0.106666666668
5	3148	16.130378889453	0.203333333334
5	3178	16.133712222787	0.206666666668
5	3221	16.183907488813	0.105000000001
5	3440	17.862511546744	0.205000000001
5	3565	18.177511546747	0.215000000003
5	3737	18.547472441794	0.205000000001
5	3819	18.649139108461	0.205000000001
5	3868	18.735851338786	0.105000000001
5	4095	19.029482175756	0.205000000001
5	4164	19.13281550909	0.206666666668
5	4182	19.150851338789	0.31666666667
5	4343	22.27433896332	0.210000000002
5	4399	22.472672296653	0.205000000001
5	4529	23.293776587895	0.208333333335
5	4644	23.634382219386	0.101666666667
5	4659	23.707109921231	0.31666666667
5	4671	23.837748886053	0.1017
5	4799	24.044415552721	0.105000000001
5	4882	25.524641026409	0.305000000001
5	5001	26.134841026409	0.305000000001
5	5040	26.148174359745	0.318333333337
5	5352	27.90047470445	0.318333333337
5	5536	28.026211457547	0.105000000001
5	5545	28.027878124214	0.208333333335
5	5583	28.102141371117	0.215000000003
5	5619	28.114606963205	0.203333333334
5	5642	28.11784186592	0.105000000001
5	5774	28.319508532587	0.205000000001
5	5831	28.524575199254	0.205066666667
5	6049	28.934575199256	0.206666666668
5	6080	28.967470248488	0.105000000001
5	6190	29.270803581822	0.205000000001
5	6339	29.663735216969	0.105000000001
5	6350	29.665401883636	0.208333333335
5	6536	32.255850625571	0.208333333335
5	6656	32.669183958907	0.31666666667
5	6754	34.406420808218	0.203333333334
5	6834	34.590287257241	0.21666666667
5	7040	34.813265252664	0.203333333334
5	7071	34.816598585998	0.206666666668
5	7104	34.883620590573	0.205000000001
5	7252	35.011833846589	0.206666666668
5	7362	35.223500513258	0.31666666667
5	7490	35.650247338343	0.208333333335
5	7557	35.85191400501	0.206666666668
5	7686	36.512852811708	0.206666666668
5	7738	36.714519478375	0.205000000001
5	7864	37.815296474197	0.106666666668
5	7953	38.016963140864	0.105000000001
5	8069	38.578164130797	0.106666666668
5	8150	38.779830797464	0.105000000001
5	8326	39.592646752676	0.206666666668
5	8348	39.637613776205	0.305000000001
5	8427	39.797646752677	0.208333333335
5	8479	40.247780442872	0.305166666666
5	8639	40.489503122527	0.105000000001
5	8839	40.792836455861	0.205000000001
5	8860	40.869447109543	0.31666666667
5	9041	42.250181784383	0.205000000001
5	9114	42.353515117717	0.206666666668
5	9245	42.646805050233	0.318333333337
5	9320	42.8484717169	0.215000000003
5	9346	42.965697770837	0.305000000001
5	9434	43.385600310717	0.203333333334
5	9490	43.576031104172	0.305000000001
5	9532	43.589364437508	0.318333333337
5	9807	44.418198087367	0.318333333337
5	9862	44.619864754034	0.31666666667
5	10085	45.176224956382	0.105000000001
5	10099	45.186224956384	0.318333333337
5	10362	45.799826055253	0.318333333337
5	10414	45.889826055251	0.205000000001
5	10501	46.078816640976	0.318333333337
5	10530	46.170483307641	0.105000000001
5	10803	48.485939926518	0.318333333337
5	10882	48.636403119589	0.203333333334
5	10949	48.687606593185	0.215000000003
5	10966	48.767587015573	0.205000000001
5	11160	49.043314230701	0.203333333334
5	11190	49.046647564035	0.206666666668
5	11282	49.184253682243	0.31666666667
5	11416	50.432101228833	0.105000000001
5	11543	50.737101228834	0.206666666668
5	11680	51.084927437518	0.206666666668
5	11705	51.184927437518	0.205000000001
5	11885	52.275277665374	0.105000000001
5	11917	52.285277665376	0.21666666667
5	12099	52.669994262689	0.210000000002
5	12158	52.868327596022	0.205000000001
5	12362	53.496263793791	0.318333333337
5	12397	53.587930460456	0.105000000001
5	12520	54.289322224975	0.105000000001
5	12690	54.805988891645	0.31666666667
5	12768	55.179785953458	0.106666666668
5	12896	55.593119286794	0.215000000003
5	12939	55.971239927157	0.203333333334
5	12977	56.378173260491	0.203333333334
5	13217	57.383968135363	0.208333333335
5	13271	57.56230042745	0.101666666667
5	13286	57.58563480203	0.206666666668
5	13315	57.765778205228	0.101811111111
5	13359	57.867414824865	0.203333333334
5	13474	57.972444871896	0.105000000001
5	13572	58.274281491533	0.203533333334
6	131	6.181281906611	0.205000000001
6	155	6.281281906611	0.101666666667
6	214	6.627863160534	0.101666666667
6	267	6.831196493868	0.101666666667
6	310	6.834529827202	0.105000000001
6	652	7.344173201419	0.205000000001
6	667	7.34917320142	0.311666666669
6	760	7.481470644999	0.205000000001
6	797	7.583137311666	0.103333333334
6	1022	8.266413098027	0.205000000001
6	1211	8.488628628709	0.310000000002
6	1229	8.573079764695	0.308333333335
6	1249	8.586961962042	0.103333333334
6	1440	9.834552670057	0.103333333334
6	1548	10.053759994185	0.203333333334
6	1671	10.335499922479	0.101666666667
6	1707	10.344552670059	0.308333333335
6	1744	10.460448883075	0.203355555556
6	2003	10.845499922481	0.306666666668
6	2021	10.86878221641	0.205000000001
6	2114	12.432748610879	0.103333333334
6	2208	12.636081944213	0.205000000001
6	2300	13.589758342491	0.103333333334
6	2387	13.793091675825	0.103333333334
6	2676	14.714527456742	0.105000000001
6	2718	14.799794955424	0.310000000002
6	2835	14.914527456742	0.101666666667
6	2874	15.001461622091	0.308333333335
6	2941	15.6721963777	0.203333333334
6	3076	16.030378889453	0.103333333334
6	3102	16.078907488812	0.203333333334
6	3136	16.082240822146	0.206666666668
6	3244	16.233712222787	0.103333333334
6	3402	17.75917821341	0.101666666667
6	3588	18.269178213412	0.306666666668
6	3652	18.44413910846	0.101666666667
6	3723	18.545805775127	0.101666666667
6	3954	18.835851338786	0.205000000001
6	3980	18.926148842422	0.101666666667
6	4161	19.131148842423	0.205000000001
6	4179	19.142518005454	0.308333333335
6	4267	22.169338963319	0.105000000001
6	4355	22.369338963319	0.101666666667
6	4486	23.188776587894	0.103333333334
6	4656	23.698776587896	0.308333333335
6	4665	23.736048886053	0.101666666667
6	4706	23.93941555272	0.101666666667
6	4744	23.942748886054	0.105000000001
6	5034	26.13984102641	0.310000000002
6	5057	26.238174359743	0.103333333334
6	5275	27.809497421474	0.101666666667
6	5344	27.892141371115	0.310000000002
6	5401	27.922878124213	0.103333333334
6	5468	28.012841865919	0.101677777778
6	5664	28.126211457547	0.205000000001
6	5683	28.193808037782	0.306666666668
6	5701	28.216175199253	0.101666666667
6	5879	28.627908532588	0.103333333334
6	6046	28.932908532589	0.205000000001
6	6122	29.067470248488	0.205000000001
6	6150	29.167470248488	0.101666666667
6	6202	29.355346328079	0.101666666667
6	6246	29.558735216968	0.101666666667
6	6275	29.560401883635	0.103333333334
6	6493	32.15085062557	0.103333333334
6	6653	32.660850625572	0.308333333335
6	6909	34.681953923906	0.308333333335
6	6941	34.713265252664	0.103333333334
6	6975	34.780287257239	0.101666666667
6	7190	34.916598585998	0.103333333334
6	7245	35.010167179922	0.205000000001
6	7359	35.215167179923	0.308333333335
6	7422	35.545247338342	0.103333333334
6	7554	35.850247338343	0.205000000001
6	7685	36.512852811708	0.206666666668
6	7700	36.611186145041	0.101666666667
6	7780	37.301785363083	0.203333333334
6	7800	37.708629807529	0.203511111112
6	7979	38.116963140864	0.205000000001
6	7995	38.268008575241	0.203333333334
6	8076	38.674830797463	0.203333333334
6	8110	38.678164130797	0.206666666668
6	8261	39.489313419342	0.103333333334
6	8370	39.692646752676	0.103333333334
6	8527	40.351113776206	0.103333333334
6	8717	40.589503122527	0.205000000001
6	8776	40.689503122527	0.101666666667
6	8857	40.861113776208	0.308333333335
6	8960	42.146848451049	0.101666666667
6	9111	42.35184845105	0.205000000001
6	9237	42.638471716898	0.310000000002
6	9334	42.940138383565	0.306666666668
6	9523	43.581031104173	0.310000000002
6	9553	43.679364437506	0.103333333334
6	9785	44.409864754032	0.310000000002
6	9859	44.611531420699	0.308333333335
6	10095	45.177891623049	0.310000000002
6	10116	45.276224956382	0.205000000001
6	10142	45.455216640971	0.305000000001
6	10326	45.786492721917	0.101666666667
6	10354	45.791492721918	0.310000000002
6	10462	46.06548330764	0.305000000001
6	10497	46.070483307641	0.310000000002
6	10795	48.477606593183	0.310000000002
6	10891	48.664253682239	0.101666666667
6	10992	48.77927325985	0.306666666668
6	11096	48.943314230701	0.103333333334
6	11250	49.146647564035	0.103333333334
6	11279	49.175920348908	0.308333333335
6	11325	49.920256784386	0.203333333334
6	11353	50.327101228832	0.203511111112
6	11540	50.735434562167	0.205000000001
6	11659	51.081594104184	0.101666666667
6	11689	51.086594104185	0.208333333335
6	11938	52.375277665374	0.205000000001
6	11953	52.380277665375	0.311666666669
6	12023	52.564994262688	0.105000000001
6	12110	52.764994262688	0.101666666667
6	12168	52.87259712712	0.305000000001
6	12323	53.482930460455	0.305000000001
6	12358	53.487930460456	0.310000000002
6	12368	53.573955558306	0.305000000001
6	12459	54.184322224974	0.305366666667
6	12558	54.462852620121	0.305000000001
6	12687	54.79765555831	0.308333333335
6	12704	55.07311928679	0.305266666668
6	12910	55.684785953459	0.306666666668
6	13022	56.481506593825	0.103333333334
6	13149	57.278968135362	0.103333333334
6	13283	57.583968135363	0.205000000001
6	13292	57.663967094117	0.101666666667
6	13366	57.867444871895	0.101666666667
6	13405	57.870778205229	0.105000000001
6	13632	58.379281491534	0.105000000001
7	138	6.184615239945	0.208333333335
7	195	6.387948573279	0.208333333335
7	447	7.039529827203	0.310000000002
7	493	7.139529827203	0.308333333335
7	655	7.345839868086	0.206666666668
7	671	7.352506534754	0.315000000003
7	689	7.378137311665	0.101666666667
7	780	7.568595295372	0.305000000001
7	861	7.789803978334	0.310000000002
7	960	8.178628628707	0.305033333334
7	1027	8.269746431361	0.208333333335
7	1167	8.478079764696	0.213333333336
7	1295	8.79362862871	0.310000000002
7	1335	9.307646639711	0.305000000001
7	1357	9.426186003389	0.305000000001
7	1512	10.036219336724	0.305000000001
7	1537	10.042886003392	0.311666666669
7	1738	10.443833255814	0.210000000002
7	1969	10.765448883076	0.101666666667
7	1992	10.770448883077	0.310000000002
7	2009	10.852166589149	0.313333333336
7	2211	12.63774861088	0.206666666668
7	2217	12.642748610881	0.313333333336
7	2364	13.694758342492	0.208333333335
7	2444	13.999758342493	0.310000000002
7	2451	14.083106066532	0.203333333334
7	2491	14.489794955422	0.203355555556
7	2818	14.906461622092	0.213333333336
7	2857	14.919527456743	0.310000000002
7	2896	15.02119412341	0.208333333335
7	3137	16.082240822146	0.206666666668
7	3186	16.135378889454	0.208333333335
7	3311	16.387240822147	0.308333333335
7	3317	16.440378889455	0.310000000002
7	3450	17.867511546745	0.210000000002
7	3594	18.27584488008	0.313333333336
7	3640	18.427451338785	0.203333333334
7	3755	18.550805775128	0.208333333335
7	3886	18.755805775129	0.311666666669
7	3926	18.834184672119	0.203333333334
7	3959	18.83918467212	0.208333333335
7	4083	19.027815509089	0.101666666667
7	4116	19.034482175757	0.210000000002
7	4380	22.37433896332	0.310000000002
7	4410	22.476005629987	0.208333333335
7	4565	23.397109921229	0.311666666669
7	4633	23.603776587897	0.213333333336
7	4840	24.147748886055	0.310000000002
7	4850	24.247748886055	0.308333333335
7	4990	26.044841026411	0.215000000003
7	5103	26.444841026411	0.310000000002
7	5121	26.972041371112	0.305000000001
7	5154	27.582141371113	0.3051
7	5667	28.127878124214	0.206666666668
7	5673	28.132878124215	0.313333333336
7	5689	28.20047470445	0.313333333336
7	5783	28.321175199254	0.308333333335
7	5816	28.426175199255	0.311666666669
7	5977	28.829575199255	0.101666666667
7	6001	28.836241865923	0.311666666669
7	6129	29.070803581822	0.208333333335
7	6196	29.274136915156	0.208333333335
7	6390	29.76873521697	0.311666666669
7	6402	29.867068550303	0.308333333335
7	6572	32.359183958905	0.311666666669
7	6636	32.565850625573	0.213333333336
7	6919	34.688620590574	0.315000000003
7	6925	34.703444957699	0.101666666667
7	7110	34.886953923907	0.208333333335
7	7122	34.906833846588	0.101666666667
7	7153	34.908500513255	0.103333333334
7	7217	34.921598585999	0.311666666669
7	7338	35.123265252666	0.310000000002
7	7514	35.746914005009	0.101666666667
7	7538	35.753580671677	0.311666666669
7	7624	36.407852811707	0.101666666667
7	7763	36.821186145043	0.311666666669
7	7955	38.016963140864	0.308333333335
7	7982	38.118629807531	0.206666666668
7	8111	38.678164130797	0.206666666668
7	8190	38.983164130798	0.308333333335
7	8394	39.697646752677	0.311666666669
7	8443	39.899313419344	0.310000000002
7	8675	40.559447109541	0.311666666669
7	8724	40.592836455861	0.208333333335
7	8821	40.766113776209	0.213333333336
7	8845	40.796169789195	0.208333333335
7	9029	42.248515117716	0.101666666667
7	9062	42.255181784384	0.210000000002
7	9192	42.543471716899	0.215000000003
7	9252	42.660697770836	0.305000000001
7	9340	42.946805050233	0.313333333336
7	9367	43.271031104171	0.305333333334
7	9609	43.886031104174	0.310000000002
7	9615	43.896375865142	0.203333333334
7	9701	44.303198087364	0.203333333334
7	9747	44.314864754033	0.215000000003
7	9814	44.460980511935	0.203333333334
7	9892	44.867891623047	0.203577777778
7	10048	45.15021664097	0.305000000001
7	10124	45.277891623049	0.206666666668
7	10276	45.696492721919	0.215000000003
7	10287	45.760483307639	0.305266666668
7	10420	45.893159388585	0.208333333335
7	10560	46.373816640975	0.308333333335
7	10578	47.557406593181	0.305000000001
7	10632	48.167606593181	0.305199999999
7	10998	48.785939926518	0.313333333336
7	11070	48.875920348908	0.313333333336
7	11198	49.048314230702	0.208333333335
7	11225	49.080920348909	0.213333333336
7	11311	49.353314230703	0.310000000002
7	11498	50.632101228833	0.101666666667
7	11521	50.637101228834	0.310000000002
7	11596	50.979927437517	0.101666666667
7	11711	51.188260770852	0.208333333335
7	11941	52.376944332041	0.206666666668
7	11957	52.383610998709	0.315000000003
7	12132	52.769994262689	0.310000000002
7	12192	52.97499426269	0.311666666669
7	12308	53.392930460457	0.215000000003
7	12435	53.79126379379	0.308333333335
7	12441	53.878955558307	0.305000000001
7	12566	54.489322224975	0.305000000001
7	12591	54.494322224976	0.310000000002
7	12821	55.381452620125	0.308333333335
7	12916	55.691452620127	0.313333333336
7	13079	56.688173260493	0.310000000002
7	13241	57.480634802029	0.101666666667
7	13265	57.487301468697	0.311666666669
7	13532	58.07577820523	0.310000000002
7	13556	58.17577820523	0.308333333335
7	13703	58.584281491535	0.310000000002
7	13737	58.789081491532	0.305000000001
7	13844	59.399381491534	0.305300000001
8	142	6.186281906612	0.210000000002
8	198	6.389615239946	0.210000000002
8	452	7.04119649387	0.311666666669
8	503	7.14119649387	0.310000000002
8	661	7.347506534753	0.208333333335
8	674	7.354173201421	0.31666666667
8	690	7.378137311665	0.101666666667
8	864	7.791470645001	0.311666666669
8	867	7.858079764692	0.203333333334
8	995	8.26474643136	0.203333333334
8	1031	8.271413098028	0.210000000002
8	1138	8.39362862871	0.215000000003
8	1298	8.795295295377	0.311666666669
8	1541	10.044552670059	0.313333333336
8	1648	10.24955267006	0.213333333336
8	1741	10.445499922481	0.211666666669
8	1970	10.765448883076	0.101666666667
8	1996	10.772115549744	0.311666666669
8	2012	10.853833255816	0.315000000003
8	2214	12.639415277547	0.208333333335
8	2220	12.644415277548	0.315000000003
8	2369	13.696425009159	0.210000000002
8	2448	14.00142500916	0.311666666669
8	2471	14.286439399866	0.203333333334
8	2600	14.693128288756	0.203333333334
8	2646	14.704794955425	0.215000000003
8	2864	14.92119412341	0.311666666669
8	2899	15.022860790077	0.210000000002
8	3142	16.083907488813	0.208333333335
8	3191	16.137045556121	0.210000000002
8	3314	16.388907488814	0.310000000002
8	3320	16.442045556122	0.311666666669
8	3453	17.869178213412	0.211666666669
8	3597	18.277511546747	0.315000000003
8	3762	18.552472441795	0.210000000002
8	3889	18.757472441796	0.313333333336
8	3963	18.840851338787	0.210000000002
8	4084	19.027815509089	0.101666666667
8	4123	19.036148842424	0.211666666669
8	4144	19.047518005455	0.213333333336
8	4388	22.376005629987	0.311666666669
8	4414	22.477672296654	0.210000000002
8	4428	22.780376587893	0.305000000001
8	4540	23.390443254561	0.305000000001
8	4569	23.398776587896	0.313333333336
8	4844	24.149415552722	0.311666666669
8	4853	24.249415552722	0.310000000002
8	4868	25.219641026408	0.305000000001
8	4896	25.829841026408	0.305199999999
8	5106	26.446507693078	0.311666666669
8	5264	27.797141371116	0.215000000003
8	5670	28.129544790881	0.208333333335
8	5676	28.134544790882	0.315000000003
8	5692	28.202141371117	0.315000000003
8	5789	28.322841865921	0.310000000002
8	5819	28.427841865922	0.313333333336
8	5978	28.829575199255	0.101666666667
8	6004	28.83790853259	0.313333333336
8	6133	29.072470248489	0.210000000002
8	6199	29.275803581823	0.210000000002
8	6393	29.770401883637	0.313333333336
8	6405	29.86873521697	0.310000000002
8	6435	31.742383958903	0.305000000001
8	6547	32.352517292237	0.305000000001
8	6576	32.360850625572	0.313333333336
8	6922	34.690287257241	0.31666666667
8	7113	34.888620590574	0.210000000002
8	7125	34.906833846588	0.101666666667
8	7222	34.923265252666	0.313333333336
8	7332	35.120167179924	0.213333333336
8	7345	35.124931919333	0.311666666669
8	7515	35.746914005009	0.101666666667
8	7541	35.755247338344	0.313333333336
8	7625	36.407852811707	0.101666666667
8	7766	36.82285281171	0.313333333336
8	7962	38.018629807531	0.310000000002
8	7985	38.120296474198	0.208333333335
8	8116	38.679830797464	0.208333333335
8	8193	38.984830797465	0.310000000002
8	8398	39.699313419344	0.313333333336
8	8446	39.900980086011	0.311666666669
8	8449	39.942613776206	0.305000000001
8	8650	40.552780442873	0.305000000001
8	8679	40.561113776208	0.313333333336
8	8728	40.594503122528	0.210000000002
8	8848	40.797836455862	0.210000000002
8	8881	41.718305050229	0.305000000001
8	9030	42.248515117716	0.101666666667
8	9069	42.256848451051	0.211666666669
8	9072	42.328471716896	0.305166666666
8	9343	42.9484717169	0.315000000003
8	9471	43.486031104174	0.215000000003
8	9576	43.693042531808	0.203333333334
8	9612	43.887697770841	0.311666666669
8	9625	44.09986475403	0.203488888888
8	9838	44.5165314207	0.213333333336
8	10011	45.07453716636	0.203333333334
8	10037	45.08289162305	0.215000000003
8	10127	45.279558289716	0.208333333335
8	10148	45.481492721916	0.203622222222
8	10423	45.894826055252	0.210000000002
8	10448	45.975483307642	0.215000000003
8	10563	46.375483307642	0.310000000002
8	10669	48.257287015571	0.305000000001
8	10744	48.382606593184	0.215000000003
8	11001	48.787606593185	0.315000000003
8	11037	48.867587015573	0.305000000001
8	11074	48.877587015575	0.315000000003
8	11203	49.049980897369	0.210000000002
8	11314	49.35498089737	0.311666666669
8	11499	50.632101228833	0.101666666667
8	11525	50.638767895501	0.311666666669
8	11597	50.979927437517	0.101666666667
8	11714	51.189927437519	0.210000000002
8	11947	52.378610998708	0.208333333335
8	11960	52.385277665376	0.31666666667
8	12034	52.567597127119	0.305000000001
8	12142	52.771660929356	0.311666666669
8	12196	52.976660929357	0.313333333336
8	12206	53.177930460454	0.305333333334
8	12438	53.792930460457	0.310000000002
8	12595	54.495988891643	0.311666666669
8	12664	54.702655558311	0.213333333336
8	12825	55.383119286792	0.310000000002
8	12919	55.693119286794	0.315000000003
8	13045	56.537020647797	0.305000000001
8	13082	56.68983992716	0.311666666669
8	13242	57.480634802029	0.101666666667
8	13268	57.488968135364	0.313333333336
8	13536	58.077444871897	0.311666666669
8	13559	58.177444871897	0.310000000002
8	13709	58.585948158202	0.311666666669
9	152	6.281281906611	0.305000000001
9	154	6.281281906611	0.101666666667
9	351	6.932863160535	0.101666666667
9	363	6.934529827202	0.205000000001
9	717	7.444173201419	0.305000000001
9	720	7.44917320142	0.411666666669
9	734	7.479803978332	0.203333333334
9	833	7.683137311666	0.203333333334
9	1080	8.366413098027	0.305000000001
9	1206	8.486961962042	0.308333333335
9	1226	8.571413098028	0.306666666668
9	1275	8.686961962042	0.203333333334
9	1375	9.612646639712	0.305000000001
9	1480	9.934552670057	0.203333333334
9	1670	10.335499922479	0.101666666667
9	1700	10.342886003392	0.306666666668
9	1818	10.562115549742	0.101666666667
9	2018	10.867115549743	0.203333333334
9	2030	10.945499922481	0.406666666668
9	2154	12.532748610879	0.203333333334
9	2223	12.736081944213	0.305000000001
9	2293	13.588091675824	0.101666666667
9	2417	13.893091675825	0.203333333334
9	2711	14.798128288757	0.308333333335
9	2774	14.814527456742	0.205000000001
9	2834	14.914527456742	0.101666666667
9	2871	14.999794955424	0.306666666668
9	3069	16.028712222786	0.101666666667
9	3202	16.180574155479	0.101666666667
9	3214	16.182240822146	0.306666666668
9	3288	16.333712222787	0.203333333334
9	3401	17.75917821341	0.101666666667
9	3578	18.240805775126	0.101666666667
9	3637	18.369178213412	0.406666666668
9	3650	18.44413910846	0.101666666667
9	3680	18.445805775127	0.103333333334
9	3979	18.926148842422	0.101666666667
9	4037	18.935851338786	0.305000000001
9	4158	19.129482175756	0.203333333334
9	4176	19.140851338787	0.306666666668
9	4319	22.269338963319	0.205000000001
9	4354	22.369338963319	0.101666666667
9	4516	23.288776587894	0.203333333334
9	4653	23.697109921229	0.306666666668
9	4778	24.041082219387	0.101666666667
9	4790	24.042748886054	0.205000000001
9	5029	26.138174359743	0.308333333335
9	5083	26.338174359743	0.203333333334
9	5340	27.890474704448	0.308333333335
9	5359	27.911164088141	0.101666666667
9	5513	28.022878124213	0.203333333334
9	5595	28.114508532586	0.101666666667
9	5631	28.116175199253	0.103333333334
9	5751	28.226211457547	0.305000000001
9	5758	28.293808037782	0.406666666668
9	5915	28.727908532588	0.203333333334
9	6043	28.931241865922	0.203333333334
9	6147	29.167470248488	0.305000000001
9	6149	29.167470248488	0.101666666667
9	6177	29.253679661412	0.101666666667
9	6211	29.457068550301	0.101722222222
9	6318	29.660401883635	0.101666666667
9	6523	32.25085062557	0.203333333334
9	6650	32.659183958905	0.306666666668
9	6707	34.203087474884	0.203333333334
9	6846	34.60993191933	0.203511111112
9	6974	34.780287257239	0.101666666667
9	6985	34.781953923906	0.408333333335
9	7237	35.008500513255	0.203333333334
9	7269	35.016598585998	0.203333333334
9	7356	35.213500513256	0.306666666668
9	7452	35.645247338342	0.203333333334
9	7551	35.848580671676	0.203333333334
9	7573	36.102763922818	0.203333333334
9	7654	36.509519478374	0.203333333334
9	7678	36.511186145041	0.205000000001
9	7840	37.810296474196	0.101666666667
9	7992	38.216963140864	0.305000000001
9	8130	38.77649746413	0.101666666667
9	8143	38.778164130797	0.306666666668
9	8181	38.979135641562	0.203333333334
9	8214	39.385980086008	0.203511111112
9	8412	39.792646752676	0.203333333334
9	8590	40.451113776206	0.203333333334
9	8773	40.689503122527	0.305000000001
9	8775	40.689503122527	0.101666666667
9	8854	40.859447109541	0.306666666668
9	8959	42.146848451049	0.101666666667
9	9108	42.350181784383	0.203333333334
9	9233	42.636805050231	0.308333333335
9	9352	43.040138383565	0.406666666668
9	9518	43.579364437506	0.308333333335
9	9529	43.588933644051	0.203333333334
9	9585	43.779364437506	0.203333333334
9	9778	44.408198087365	0.308333333335
9	9856	44.609864754032	0.306666666668
9	10087	45.176224956382	0.308333333335
9	10135	45.376224956382	0.305000000001
9	10325	45.786492721917	0.101666666667
9	10347	45.789826055251	0.308333333335
9	10492	46.068816640974	0.308333333335
9	10514	46.167149974307	0.101666666667
9	10610	47.95228701557	0.305000000001
9	10791	48.475939926516	0.308333333335
9	10814	48.562587015572	0.305300000001
9	11078	48.87927325985	0.406666666668
9	11089	48.941647564034	0.101666666667
9	11276	49.174253682241	0.306666666668
9	11291	49.246647564035	0.203333333334
9	11400	50.428767895499	0.101666666667
9	11537	50.7337678955	0.203333333334
9	11658	51.081594104184	0.101666666667
9	11669	51.083260770851	0.205000000001
9	11852	52.256505373799	0.203333333334
9	12000	52.475277665374	0.305000000001
9	12003	52.480277665375	0.411666666669
9	12052	52.663327596021	0.203333333334
9	12076	52.664994262688	0.205000000001
9	12353	53.486263793789	0.308333333335
9	12381	53.584597127122	0.101666666667
9	12504	54.285988891641	0.101666666667
9	12684	54.795988891643	0.306666666668
9	12744	55.174785953457	0.101666666667
9	12922	55.767906593823	0.203333333334
9	12928	55.784785953459	0.406666666668
9	12957	56.174839927157	0.2036
9	12963	56.232020647796	0.305000000001
9	13055	56.581506593825	0.203333333334
9	13179	57.378968135362	0.203333333334
9	13280	57.582301468696	0.203333333334
9	13452	57.969111538562	0.101666666667
9	13465	57.970778205229	0.205000000001
9	13508	58.070748158199	0.203333333334
9	13665	58.477614824867	0.203333333334
9	13669	58.479281491534	0.205000000001
9	13786	59.094081491533	0.305000000001

