version 2
run General-1-20190610-16:32:12-16804
attr configname General
attr datetime 20190610-16:32:12
attr experiment General
attr inifile omnetpp.ini
attr iterationvars ""
attr iterationvarsf ""
attr measurement ""
attr network networks.Net5
attr processid 16804
attr repetition 1
attr replication #1
attr resultdir results
attr runnumber 1
attr seedset 1
param **.appType "\"App\""
param **.app.packetLength "1500 bytes"
param **.app.totalNodes 10
param **.destAddresses "\"0\""
param **.sendIaTime "uniform(5s, 10s)"
param **.sendIaTimeEvil 10ms

vector 0 Net5.rte[1].app endToEndDelay:vector ETV
attr interpolationmode none
attr title "end-to-end delay of arrived packets, vector"
attr unit s
vector 1 Net5.rte[4].app endToEndDelay:vector ETV
attr interpolationmode none
attr title "end-to-end delay of arrived packets, vector"
attr unit s
vector 2 Net5.rte[8].app endToEndDelay:vector ETV
attr interpolationmode none
attr title "end-to-end delay of arrived packets, vector"
attr unit s
vector 3 Net5.rte[9].app endToEndDelay:vector ETV
attr interpolationmode none
attr title "end-to-end delay of arrived packets, vector"
attr unit s
vector 4 Net5.rte[2].app endToEndDelay:vector ETV
attr interpolationmode none
attr title "end-to-end delay of arrived packets, vector"
attr unit s
vector 5 Net5.rte[5].app endToEndDelay:vector ETV
attr interpolationmode none
attr title "end-to-end delay of arrived packets, vector"
attr unit s
vector 6 Net5.rte[6].app endToEndDelay:vector ETV
attr interpolationmode none
attr title "end-to-end delay of arrived packets, vector"
attr unit s
vector 7 Net5.rte[3].app endToEndDelay:vector ETV
attr interpolationmode none
attr title "end-to-end delay of arrived packets, vector"
attr unit s
vector 8 Net5.rte[7].app endToEndDelay:vector ETV
attr interpolationmode none
attr title "end-to-end delay of arrived packets, vector"
attr unit s
vector 9 Net5.rte[0].app endToEndDelay:vector ETV
attr interpolationmode none
attr title "end-to-end delay of arrived packets, vector"
attr unit s
0	7	5.102238572069	0.101666666667
0	19	5.305571905403	0.101666666667
0	122	5.508905238737	0.101666666667
0	388	6.447112796089	0.103333333334
0	433	6.455622238864	0.205000000001
0	563	6.650446129423	0.103333333334
0	589	6.658955572198	0.205000000001
0	756	6.893778214656	0.103333333334
0	855	7.095444881323	0.101666666667
0	1031	7.32835172764	0.206666666668
0	1121	7.52835172764	0.203333333334
0	1272	8.000109992189	0.305000000001
0	1373	8.30510999219	0.406666666668
0	1561	9.823322446444	0.306666666668
0	1671	10.026655779778	0.205000000001
0	1792	10.171120139337	0.203333333334
0	1835	10.189257374	0.101666666667
0	1941	10.374453472671	0.305000000001
0	1956	10.392601818445	0.101666666667
0	1984	10.394268485112	0.103333333334
0	2131	10.503558132531	0.203333333334
0	2255	10.706891465865	0.305000000001
0	2486	12.253639628479	0.101666666667
0	2513	12.25863962848	0.411666666669
0	2615	12.91775057071	0.105000000001
0	2719	13.11775057071	0.101666666667
0	2874	13.543129835804	0.103333333334
0	2963	13.746463169138	0.103333333334
0	3243	15.488581351071	0.305000000001
0	3284	15.521650935257	0.203333333334
0	3319	15.691914684405	0.406666666668
0	3345	15.928339824147	0.203355555556
0	3533	16.336673157482	0.205000000001
0	3615	16.488184061867	0.101666666667
0	3724	16.691517395201	0.203333333334
0	3988	18.111402269614	0.103333333334
0	4012	18.195998651474	0.305000000001
0	4095	18.297665318141	0.305000000001
0	4118	18.313068936281	0.101666666667
0	4257	19.20304489016	0.101666666667
0	4309	19.406411556827	0.101666666667
0	4337	19.408078223494	0.103333333334
0	4629	19.92568364333	0.408333333335
0	4692	20.129016976664	0.205000000001
0	4807	21.118372947704	0.103333333334
0	4907	21.320039614371	0.101666666667
0	5026	21.89579226402	0.103333333334
0	5099	22.099125597354	0.103333333334
0	5246	22.936343391893	0.101666666667
0	5374	23.139676725227	0.203333333334
0	5584	24.151918476149	0.305000000001
0	5685	24.45691847615	0.406666666668
0	5902	25.782607606188	0.101666666667
0	5912	25.784274272855	0.408333333335
0	6170	26.800945353599	0.101666666667
0	6197	26.8059453536	0.310000000002
0	6208	26.84917917954	0.305000000001
0	6397	27.44478968654	0.101666666667
0	6450	27.459312512874	0.305000000001
0	6475	27.460979179541	0.306666666668
0	6592	27.649789686541	0.205000000001
0	6786	28.734706298603	0.206666666668
0	6916	29.138039631937	0.305000000001
0	6989	29.718577336587	0.101666666667
0	7101	29.923577336588	0.205000000001
0	7302	30.887546425059	0.101666666667
0	7312	30.889213091726	0.306666666668
0	7450	31.330532155667	0.101666666667
0	7566	31.533865489001	0.203333333334
0	7609	31.891454174249	0.305000000001
0	7727	32.501687507582	0.305233333332
0	7768	32.534350954287	0.206666666668
0	8115	33.111687507584	0.305000000001
0	8128	33.141017620955	0.406666666668
0	8210	33.758086954433	0.105000000001
0	8389	34.163086954434	0.205000000001
0	8456	34.755515055131	0.406666666668
0	8606	35.569115055131	0.406666666668
0	8630	35.570781721798	0.408333333335
0	8894	36.714339616715	0.101666666667
0	8904	36.716006283382	0.306666666668
0	9147	37.638600323516	0.305000000001
0	9181	37.740266990183	0.305000000001
0	9522	40.257009854639	0.408333333335
0	9560	40.297545314197	0.205000000001
0	9693	40.460343187973	0.103333333334
0	9728	40.500878647531	0.205000000001
0	10008	40.843734486626	0.408333333335
0	10045	40.943734486626	0.305000000001
0	10169	41.202270882074	0.101666666667
0	10195	41.207270882075	0.208333333335
0	10318	41.975481339731	0.101666666667
0	10430	42.180481339732	0.205000000001
0	10591	42.857281402719	0.203333333334
0	10659	43.060614736053	0.305000000001
0	10800	45.029629327288	0.206666666668
0	10886	45.229629327288	0.101666666667
0	10984	45.386431272013	0.101666666667
0	11099	45.589764605347	0.203333333334
0	11232	47.657448100292	0.105000000001
0	11436	48.26411476696	0.305000000001
0	11527	48.703767872319	0.101666666667
0	11657	48.90876787232	0.205000000001
0	11830	49.559561260344	0.306666666668
0	11888	49.762894593678	0.103333333334
0	12054	50.480462110499	0.103333333334
0	12188	50.887128777167	0.205000000001
0	12314	52.519961365466	0.203333333334
0	12418	52.900547434239	0.206666666668
0	12443	52.926850254356	0.203555555556
0	12710	53.303880767573	0.305000000001
0	12726	53.333516921024	0.203333333334
0	12818	54.165560610122	0.105000000001
0	12912	54.365560610122	0.101666666667
0	13182	55.396610474217	0.305000000001
0	13216	55.498277140884	0.305000000001
0	13458	57.247303187754	0.408333333335
0	13551	57.450636521088	0.205000000001
0	13580	57.515024522718	0.203333333334
0	13873	57.921868967164	0.203333333334
0	13902	57.925202300498	0.206666666668
0	14003	58.027196198106	0.305000000001
0	14044	58.038862864775	0.418333333337
0	14237	58.464265319129	0.101666666667
0	14264	58.46926531913	0.310000000002
0	14378	59.780583862048	0.105000000001
0	14539	60.183917195382	0.203333333334
0	14764	62.340628526981	0.408333333335
0	14827	62.543961860315	0.205000000001
0	15066	63.758921541239	0.206666666668
0	15273	64.162254874573	0.305000000001
0	15501	64.455527809822	0.306666666668
0	15626	64.593109902432	0.203333333334
0	15640	64.601443235767	0.313333333336
0	15662	64.657661083752	0.305000000001
0	15668	64.658861143156	0.103333333334
0	15935	65.269161143158	0.305000000001
0	15938	65.270827809825	0.306666666668
0	15984	65.480994417084	0.101666666667
1	13	5.203905238736	0.101666666667
1	56	5.40723857207	0.101666666667
1	98	5.413905238738	0.108333333335
1	222	5.937112796087	0.203333333334
1	297	6.343779462755	0.203333333334
1	355	6.357288905531	0.106666666668
1	366	6.383778214654	0.203333333334
1	524	6.562288905532	0.108333333335
1	645	6.757112796091	0.210000000002
1	679	6.790444881322	0.203333333334
1	934	7.200444881324	0.206666666668
1	963	7.230018394307	0.108333333335
1	1088	7.430018394307	0.105000000001
1	1249	7.901776658856	0.206666666668
1	1359	8.208443325524	0.310000000002
1	1519	9.724989113111	0.208333333335
1	1600	9.928322446445	0.106666666668
1	1742	10.072786806004	0.105000000001
1	1858	10.276120139338	0.206666666668
1	2061	10.405224799198	0.105000000001
1	2110	10.499268485113	0.106666666668
1	2160	10.507601818448	0.21666666667
1	2228	10.608558132532	0.206666666668
1	2303	11.541872961811	0.305000000001
1	2423	12.151972961812	0.305000000001
1	2461	12.15863962848	0.311666666669
1	2692	13.024417237378	0.211666666669
1	2789	13.222750570711	0.206666666668
1	2939	13.648129835805	0.208333333335
1	3012	13.853129835806	0.210000000002
1	3199	15.390248017738	0.206666666668
1	3298	15.595248017739	0.310000000002
1	3400	16.036673157482	0.108333333335
1	3470	16.183139617422	0.101666666667
1	3499	16.240006490816	0.108333333335
1	3559	16.3865173952	0.101711111111
1	3702	16.593184061868	0.105000000001
1	3755	17.601313380724	0.203333333334
1	3883	18.00806893628	0.203422222222
1	3942	18.097665318141	0.206666666668
1	4025	18.199331984808	0.206666666668
1	4167	18.418068936282	0.206666666668
1	4402	19.513078223495	0.106666666668
1	4450	19.52141155683	0.21666666667
1	4593	19.829016976664	0.311666666669
1	4662	20.030683643331	0.106666666668
1	4754	20.811572947704	0.203333333334
1	4841	21.218372947704	0.203333333334
1	4881	21.223372947705	0.208333333335
1	4938	21.385725597352	0.203333333334
1	4977	21.792458930686	0.2034
1	5142	22.205792264022	0.210000000002
1	5340	23.041343391894	0.105000000001
1	5341	23.041343391894	0.206666666668
1	5561	24.053585142816	0.206666666668
1	5671	24.360251809484	0.310000000002
1	5884	25.687607606189	0.311666666669
1	5961	25.887607606189	0.206666666668
1	6004	26.292434242486	0.203333333334
1	6106	26.699278686932	0.203333333334
1	6143	26.704278686933	0.208333333335
1	6248	27.139756353206	0.101666666667
1	6330	27.343123019873	0.1017
1	6375	27.362645846208	0.208333333335
1	6521	27.551456353208	0.106666666668
1	6563	27.565979179542	0.106666666668
1	6759	28.638039631937	0.110000000002
1	6902	29.039706298604	0.206666666668
1	6936	29.413544003253	0.101666666667
1	6948	29.61691066992	0.1017
1	7075	29.826910669922	0.108333333335
1	7282	30.790879758393	0.208333333335
1	7361	30.99254642506	0.206666666668
1	7377	31.025465489	0.101666666667
1	7406	31.228865489	0.101733333333
1	7538	31.435532155668	0.105000000001
1	7704	32.436017620954	0.108333333335
1	7815	32.610020840917	0.108333333335
1	8073	33.013354174251	0.206666666668
1	8100	33.044350954289	0.310000000002
1	8257	33.864753621101	0.211666666669
1	8350	34.064753621101	0.106666666668
1	8592	35.474115055132	0.311666666669
1	8671	35.675781721799	0.106666666668
1	8751	36.042124910445	0.203333333334
1	8874	36.617672950049	0.208333333335
1	8949	36.819339616716	0.206666666668
1	9115	37.540266990183	0.206666666668
1	9159	37.64193365685	0.206666666668
1	9462	40.160343187973	0.311666666669
1	9501	40.199211980864	0.106666666668
1	9630	40.402545314198	0.106666666668
1	9804	40.567009854641	0.210000000002
1	9960	40.74706781996	0.311666666669
1	10014	40.845401153293	0.206666666668
1	10039	40.89713754874	0.101666666667
1	10097	41.100604215407	0.101666666667
1	10142	41.108937548742	0.110000000002
1	10265	41.670425784175	0.101666666667
1	10277	41.873814673064	0.101722222222
1	10404	42.083814673066	0.108333333335
1	10569	42.758948069386	0.105000000001
1	10642	42.96228140272	0.206666666668
1	10765	44.931295993955	0.108333333335
1	10825	45.081331272012	0.101666666667
1	10920	45.284764605346	0.101766666667
1	10964	45.334629327289	0.206666666668
1	11077	45.491431272014	0.105000000001
1	11279	47.76411476696	0.211666666669
1	11418	48.165781433627	0.206666666668
1	11460	48.398678983429	0.101666666667
1	11482	48.602101205652	0.101755555556
1	11616	48.810434538987	0.106666666668
1	11723	49.186195464271	0.203333333334
1	11808	49.461227927011	0.208333333335
1	11940	49.869561260346	0.210000000002
1	12099	50.5854621105	0.208333333335
1	12165	50.790462110501	0.108333333335
1	12387	52.803880767573	0.110000000002
1	12544	53.035183587691	0.108333333335
1	12654	53.20554743424	0.206666666668
1	12692	53.235183587691	0.105000000001
1	12891	54.27222727679	0.211666666669
1	12978	54.470560610123	0.206666666668
1	13148	55.298277140884	0.206666666668
1	13195	55.399943807551	0.206666666668
1	13414	57.150636521088	0.311666666669
1	13505	57.352303187755	0.106666666668
1	13796	57.826868967165	0.108333333335
1	13919	57.928862864773	0.206666666668
1	13962	57.940529531442	0.320000000004
1	13976	57.95557643024	0.203333333334
1	14009	58.028535633832	0.106666666668
1	14177	58.362598652462	0.203333333334
1	14214	58.367598652463	0.208333333335
1	14425	59.887250528716	0.211666666669
1	14518	60.085583862049	0.105000000001
1	14728	62.243961860315	0.311666666669
1	14797	62.445628526982	0.106666666668
1	14928	63.322776187776	0.101666666667
1	15006	63.637852566016	0.203333333334
1	15029	63.660588207906	0.108333333335
1	15206	64.06392154124	0.206666666668
1	15406	64.357194476489	0.208333333335
1	15543	64.494776569099	0.105000000001
1	15565	64.503109902434	0.215000000003
1	15732	64.765627809824	0.210100000002
1	15911	65.172494476492	0.208333333335
1	15965	65.379327750417	0.101666666667
1	16000	65.582761083751	0.101766666667
2	57	5.40723857207	0.101666666667
2	175	5.612238572071	0.205000000001
2	242	6.140446129421	0.203333333334
2	464	6.547112796089	0.203333333334
2	492	6.550446129423	0.206666666668
2	530	6.563955572199	0.313333333336
2	673	6.770622238867	0.31666666667
2	824	6.99711154799	0.206666666668
2	944	7.203778214658	0.210000000002
2	1106	7.440018394309	0.318333333337
2	1141	7.636685060975	0.311666666669
2	1337	8.110109992191	0.415000000003
2	1386	8.418443325526	0.520000000004
2	1614	9.933322446446	0.41666666667
2	1780	10.138322446447	0.31666666667
2	1865	10.279453472672	0.311666666669
2	2080	10.484453472673	0.415000000003
2	2091	10.494268485112	0.101666666667
2	2121	10.502601818447	0.211666666669
2	2238	10.611891465866	0.311666666669
2	2274	10.816891465867	0.415000000003
2	2535	12.356972961813	0.205000000001
2	2544	12.368639628482	0.521666666671
2	2547	12.406039459597	0.203333333334
2	2570	12.812750570709	0.203377777778
2	2802	13.226083904045	0.210000000002
2	2809	13.236418724692	0.203333333334
2	2904	13.643129835804	0.203333333334
2	2949	13.651463169139	0.211666666669
2	3305	15.598581351073	0.415000000003
2	3338	15.805248017741	0.520000000004
2	3383	16.030006490814	0.101666666667
2	3602	16.448339824151	0.31666666667
2	3693	16.591517395201	0.205000000001
2	3740	16.799850728536	0.311666666669
2	4078	18.214735602948	0.206666666668
2	4108	18.305998651476	0.415000000003
2	4153	18.407665318143	0.415000000003
2	4177	18.421402269616	0.210000000002
2	4383	19.508078223494	0.101666666667
2	4413	19.516411556829	0.211666666669
2	4684	20.039016976666	0.521666666671
2	4727	20.240683643333	0.31666666667
2	4890	21.226706281039	0.211666666669
2	4951	21.423372947705	0.205000000001
2	4967	21.589058930686	0.203333333334
2	5048	21.99579226402	0.203333333334
2	5076	21.999125597354	0.206666666668
2	5362	23.044676725228	0.210000000002
2	5404	23.248010058562	0.311666666669
2	5649	24.261918476151	0.415000000003
2	5706	24.570251809486	0.520000000004
2	5971	25.890940939523	0.210000000002
2	5974	25.897607606191	0.521666666671
2	6221	26.904278686933	0.205000000001
2	6230	26.912612020268	0.41666666667
2	6508	27.548123019874	0.205000000001
2	6549	27.560979179541	0.101666666667
2	6577	27.570979179543	0.41666666667
2	6652	27.76145635321	0.31666666667
2	6852	28.846372965272	0.318333333337
2	6929	29.248039631939	0.415000000003
2	7057	29.821910669921	0.205000000001
2	7140	30.035244003257	0.31666666667
2	7371	30.995879758394	0.210000000002
2	7374	30.999213091728	0.41666666667
2	7529	31.433865489001	0.205000000001
2	7590	31.642198822336	0.311666666669
2	7798	32.603354174249	0.101666666667
2	7844	32.646017620956	0.318333333337
2	8095	33.042920287765	0.305000000001
2	8145	33.221687507586	0.415000000003
2	8152	33.254350954291	0.520000000004
2	8169	33.653086954432	0.305166666666
2	8429	34.274753621103	0.31666666667
2	8658	35.670781721798	0.101666666667
2	8686	35.684115055134	0.521666666671
2	8959	36.82267295005	0.210000000002
2	8962	36.826006283384	0.41666666667
2	9193	37.748600323518	0.415000000003
2	9197	37.850266990185	0.415000000003
2	9243	39.340065410194	0.508333333335
2	9585	40.357009854639	0.508333333335
2	9614	40.370343187975	0.521666666671
2	9640	40.405878647532	0.313333333336
2	9832	40.6125453142	0.31666666667
2	10058	40.957067819962	0.521666666671
2	10094	41.053734486628	0.415000000003
2	10230	41.305604215408	0.205000000001
2	10249	41.317270882077	0.318333333337
2	10386	42.078814673065	0.205000000001
2	10465	42.292148006401	0.31666666667
2	10649	42.965614736054	0.311666666669
2	10672	43.170614736055	0.415000000003
2	10871	45.141295993957	0.318333333337
2	10974	45.337962660623	0.210000000002
2	11068	45.489764605347	0.205000000001
2	11115	45.698097938682	0.311666666669
2	11152	46.738670322511	0.406666666668
2	11191	47.552448100291	0.407111111112
2	11457	48.374114766962	0.415000000003
2	11603	48.807101205653	0.205000000001
2	11640	48.8459168159	0.406666666668
2	11686	48.982862130937	0.203333333334
2	11702	49.020434538989	0.31666666667
2	11847	49.659561260344	0.406666666668
2	11878	49.669561260346	0.41666666667
2	12107	50.588795443834	0.211666666669
2	12223	50.998795443836	0.31666666667
2	12516	53.012214100908	0.318333333337
2	12527	53.028516921023	0.101666666667
2	12742	53.413880767575	0.415000000003
2	12745	53.441850254359	0.311666666669
2	12756	53.653605054565	0.203333333334
2	12777	54.060560610121	0.203622222222
2	12991	54.473893943457	0.210000000002
2	13228	55.506610474219	0.415000000003
2	13232	55.608277140886	0.415000000003
2	13527	57.36063652109	0.521666666671
2	13606	57.562303187757	0.31666666667
2	13987	58.023535633831	0.101666666667
2	14037	58.036868967167	0.318333333337
2	14085	58.137196198108	0.415000000003
2	14088	58.148862864777	0.528333333339
2	14282	58.567598652463	0.205000000001
2	14291	58.575931985798	0.41666666667
2	14309	59.065217195379	0.305000000001
2	14337	59.675583862047	0.305366666667
2	14555	60.292250528717	0.311666666669
2	14819	62.453961860317	0.521666666671
2	14866	62.655628526984	0.31666666667
2	15052	63.741750032042	0.406666666668
2	15135	63.870588207908	0.318333333337
2	15344	64.272254874575	0.415000000003
2	15582	64.555527809822	0.406666666668
2	15614	64.565527809824	0.41666666667
2	15704	64.701443235767	0.311666666669
2	15708	64.709776569102	0.421666666671
2	15970	65.380827809827	0.41666666667
3	58	5.40723857207	0.101666666667
3	178	5.613905238738	0.206666666668
3	339	6.35228890553	0.101666666667
3	498	6.55211279609	0.208333333335
3	546	6.587111547988	0.203333333334
3	664	6.763779462759	0.21666666667
3	676	6.772288905534	0.318333333337
3	794	6.993778214656	0.203333333334
3	831	6.998778214657	0.208333333335
3	1073	7.426685060973	0.101666666667
3	1109	7.441685060976	0.320000000004
3	1264	7.908443325524	0.213333333336
3	1370	8.216776658859	0.318333333337
3	1530	9.731655779779	0.215000000003
3	1705	10.06945347267	0.101666666667
3	1758	10.087590707333	0.101666666667
3	1783	10.139989113114	0.318333333337
3	1872	10.282786806006	0.213333333336
3	1875	10.290935151778	0.101677777778
3	2021	10.401891465864	0.101666666667
3	2092	10.494268485112	0.101666666667
3	2245	10.6152247992	0.213333333336
3	2472	12.166972961815	0.320000000004
3	2538	12.35863962848	0.206666666668
3	2560	12.609372792931	0.203333333334
3	2650	13.016083904043	0.203333333334
3	2707	13.031083904046	0.218333333337
3	2710	13.033085391358	0.203333333334
3	2831	13.43979650247	0.203377777778
3	3027	13.859796502474	0.21666666667
3	3225	15.396914684406	0.213333333336
3	3312	15.603581351074	0.318333333337
3	3384	16.030006490814	0.101666666667
3	3605	16.450006490818	0.318333333337
3	3682	16.589850728534	0.101666666667
3	3703	16.593184061868	0.206666666668
3	3777	17.804646714058	0.203333333334
3	3968	18.104331984809	0.213333333336
3	4043	18.205998651476	0.213333333336
3	4048	18.211402269614	0.203333333334
3	4085	18.216402269615	0.208333333335
3	4241	19.101378223493	0.101666666667
3	4270	19.30474489016	0.1017
3	4384	19.508078223494	0.101666666667
3	4604	19.837350309999	0.320000000004
3	4730	20.24235031	0.318333333337
3	4744	20.60823961437	0.203333333334
3	4764	21.01503961437	0.203466666666
3	4954	21.425039614372	0.206666666668
3	5082	22.000792264021	0.208333333335
3	5157	22.21245893069	0.21666666667
3	5198	22.631287836337	0.101666666667
3	5210	22.834676725226	0.101722222222
3	5320	23.03801005856	0.101666666667
3	5576	24.060251809484	0.213333333336
3	5682	24.368585142819	0.318333333337
3	5727	25.070674272852	0.305000000001
3	5847	25.680940939521	0.305000000001
3	5896	25.695940939524	0.320000000004
3	6156	26.710945353601	0.215000000003
3	6224	26.9059453536	0.206666666668
3	6386	27.369312512876	0.215000000003
3	6515	27.549789686541	0.206666666668
3	6550	27.560979179541	0.101666666667
3	6655	27.763123019877	0.318333333337
3	6855	28.848039631939	0.320000000004
3	6913	29.046372965272	0.213333333336
3	7064	29.823577336588	0.206666666668
3	7143	30.036910669924	0.318333333337
3	7163	30.379013091724	0.203333333334
3	7246	30.785879758392	0.203333333334
3	7296	30.797546425061	0.215000000003
3	7518	31.432198822334	0.101666666667
3	7539	31.435532155668	0.206666666668
3	7799	32.603354174249	0.101666666667
3	7847	32.647684287623	0.320000000004
3	8084	33.020020840919	0.213333333336
3	8112	33.052684287624	0.318333333337
3	8272	33.871420287769	0.218333333337
3	8432	34.27642028777	0.318333333337
3	8603	35.482448388467	0.320000000004
3	8659	35.670781721798	0.101666666667
3	8718	35.838791577111	0.203333333334
3	8759	36.205784061158	0.203333333334
3	8839	36.612672950048	0.203333333334
3	8888	36.624339616717	0.215000000003
3	9141	37.546933656851	0.213333333336
3	9177	37.648600323518	0.213333333336
3	9473	40.168676521308	0.320000000004
3	9485	40.194211980863	0.101666666667
3	9819	40.573676521309	0.21666666667
3	9835	40.614211980867	0.318333333337
3	9979	40.755401153295	0.320000000004
3	10029	40.852067819961	0.213333333336
3	10233	41.307270882075	0.206666666668
3	10252	41.318937548744	0.320000000004
3	10393	42.080481339732	0.206666666668
3	10468	42.293814673068	0.318333333337
3	10532	42.755614736052	0.101666666667
3	10656	42.968948069388	0.213333333336
3	10702	44.517595993953	0.305000000001
3	10831	45.127962660621	0.305000000001
3	10874	45.142962660624	0.320000000004
3	11057	45.48809793868	0.101666666667
3	11078	45.491431272014	0.206666666668
3	11294	47.770781433628	0.218333333337
3	11429	48.172448100295	0.213333333336
3	11610	48.80876787232	0.206666666668
3	11705	49.022101205656	0.318333333337
3	11823	49.467894593679	0.215000000003
3	11898	49.766928777165	0.305000000001
3	11956	49.876227927014	0.21666666667
3	12011	50.377128777165	0.305199999999
3	12226	51.000462110503	0.318333333337
3	12519	53.013880767575	0.320000000004
3	12528	53.028516921023	0.101666666667
3	12665	53.212214100908	0.213333333336
3	12677	53.231850254357	0.101666666667
3	12767	53.856938387899	0.203333333334
3	12849	54.263893943455	0.203333333334
3	12906	54.278893943458	0.218333333337
3	13174	55.304943807552	0.213333333336
3	13213	55.406610474219	0.213333333336
3	13428	57.158969854423	0.320000000004
3	13609	57.563969854424	0.318333333337
3	13946	57.935529531441	0.213333333336
3	13973	57.94719619811	0.326666666672
3	13988	58.023535633831	0.101666666667
3	14041	58.038535633834	0.320000000004
3	14227	58.374265319131	0.215000000003
3	14285	58.56926531913	0.206666666668
3	14440	59.893917195384	0.218333333337
3	14503	60.082250528715	0.101666666667
3	14739	62.25229519365	0.320000000004
3	14869	62.657295193651	0.318333333337
3	15138	63.872254874575	0.320000000004
3	15218	64.070588207908	0.213333333336
3	15418	64.363861143157	0.215000000003
3	15531	64.491443235765	0.101666666667
3	15566	64.503109902434	0.215000000003
3	15747	64.772194476492	0.21666666667
3	15923	65.17916114316	0.215000000003
4	123	5.508905238737	0.101666666667
4	142	5.512238572071	0.206666666668
4	380	6.445446129422	0.101666666667
4	437	6.457288905531	0.206666666668
4	596	6.660622238865	0.206666666668
4	627	6.714996172082	0.203333333334
4	720	6.855446129424	0.308333333335
4	748	6.892111547989	0.101666666667
4	886	7.121685060972	0.203355555556
4	995	7.300444881324	0.306666666668
4	1124	7.530018394307	0.205000000001
4	1280	8.001776658856	0.306666666668
4	1376	8.306776658857	0.408333333335
4	1415	9.211622446442	0.305000000001
4	1539	9.821655779777	0.305000000001
4	1565	9.824989113111	0.308333333335
4	1805	10.172786806004	0.205000000001
4	1944	10.376120139338	0.306666666668
4	2148	10.505224799198	0.205000000001
4	2197	10.597601818446	0.205000000001
4	2224	10.607601818448	0.31666666667
4	2261	10.708558132532	0.306666666668
4	2487	12.253639628479	0.101666666667
4	2506	12.256972961813	0.410000000002
4	2748	13.122750570711	0.310000000002
4	2818	13.322750570711	0.306666666668
4	2969	13.748129835805	0.308333333335
4	3034	13.951463169139	0.308333333335
4	3251	15.490248017738	0.306666666668
4	3322	15.693581351072	0.408333333335
4	3446	16.135006490815	0.206666666668
4	3537	16.338339824149	0.206666666668
4	3616	16.488184061867	0.101666666667
4	3727	16.693184061868	0.205000000001
4	3980	18.109735602947	0.101666666667
4	4021	18.197665318141	0.306666666668
4	4099	18.299331984808	0.306666666668
4	4187	18.518068936282	0.306666666668
4	4223	18.971509637843	0.305000000001
4	4247	19.110594754439	0.406666666668
4	4472	19.611411556828	0.205000000001
4	4496	19.62141155683	0.31666666667
4	4607	19.924016976663	0.406666666668
4	4633	19.927350309997	0.410000000002
4	4908	21.320039614371	0.101666666667
4	4927	21.323372947705	0.308333333335
4	5018	21.894125597353	0.101666666667
4	5164	22.304125597355	0.308333333335
4	5377	23.141343391894	0.205000000001
4	5382	23.143010058561	0.308333333335
4	5592	24.153585142816	0.306666666668
4	5688	24.458585142817	0.408333333335
4	5923	25.785940939522	0.410000000002
4	5983	25.987607606189	0.306666666668
4	6171	26.800945353599	0.101666666667
4	6190	26.804278686933	0.308333333335
4	6287	27.241423019873	0.101666666667
4	6395	27.44478968654	0.101666666667
4	6425	27.446456353207	0.103333333334
4	6479	27.462645846208	0.308333333335
4	6621	27.664312512875	0.205000000001
4	6789	28.73637296527	0.208333333335
4	6919	29.139706298604	0.306666666668
4	6990	29.718577336587	0.101666666667
4	7104	29.925244003255	0.206666666668
4	7323	30.890879758393	0.308333333335
4	7386	31.09254642506	0.306666666668
4	7451	31.330532155667	0.101666666667
4	7557	31.514084287619	0.406666666668
4	7569	31.535532155668	0.205000000001
4	7651	32.327684287619	0.406933333332
4	7858	32.70835417425	0.206666666668
4	8118	33.113354174251	0.306666666668
4	8131	33.142684287622	0.408333333335
4	8155	33.347920287766	0.305000000001
4	8279	33.958086954433	0.305000000001
4	8307	33.963086954434	0.310000000002
4	8634	35.572448388465	0.410000000002
4	8697	35.774115055132	0.205000000001
4	8915	36.717672950049	0.308333333335
4	8968	36.919339616716	0.306666666668
4	9155	37.640266990183	0.306666666668
4	9184	37.74193365685	0.306666666668
4	9320	39.88907864753	0.203333333334
4	9525	40.258676521306	0.410000000002
4	9537	40.29587864753	0.203333333334
4	9564	40.299211980864	0.206666666668
4	9902	40.665343187974	0.308333333335
4	10015	40.845401153293	0.410000000002
4	10048	40.945401153293	0.306666666668
4	10170	41.202270882074	0.101666666667
4	10196	41.207270882075	0.208333333335
4	10319	41.975481339731	0.101666666667
4	10433	42.182148006399	0.206666666668
4	10604	42.858948069386	0.205000000001
4	10662	43.06228140272	0.306666666668
4	10688	44.212595993952	0.305000000001
4	10716	44.82296266062	0.305366666667
4	10985	45.386431272013	0.101666666667
4	11042	45.434629327289	0.306666666668
4	11102	45.591431272014	0.205000000001
4	11305	47.862448100293	0.310000000002
4	11439	48.265781433627	0.306666666668
4	11472	48.500345650096	0.101666666667
4	11525	48.703767872319	0.101666666667
4	11555	48.705434538986	0.103333333334
4	11833	49.561227927011	0.308333333335
4	11963	49.967894593679	0.308333333335
4	12136	50.6854621105	0.308333333335
4	12191	50.888795443834	0.206666666668
4	12421	52.902214100906	0.208333333335
4	12625	53.133516921024	0.206666666668
4	12713	53.30554743424	0.306666666668
4	12729	53.335183587691	0.205000000001
4	12941	54.370560610123	0.310000000002
4	13001	54.570560610123	0.306666666668
4	13191	55.398277140884	0.306666666668
4	13219	55.499943807551	0.306666666668
4	13269	56.431903187751	0.406666666668
4	13436	57.245636521087	0.406666666668
4	13462	57.248969854421	0.410000000002
4	13483	57.311691189384	0.203333333334
4	13663	57.71853563383	0.203511111112
4	14013	58.028862864773	0.306666666668
4	14047	58.040529531442	0.420000000004
4	14067	58.126868967165	0.205000000001
4	14238	58.464265319129	0.101666666667
4	14257	58.467598652463	0.308333333335
4	14475	59.985583862049	0.310000000002
4	14542	60.185583862049	0.205000000001
4	14592	61.52513963809	0.406666666668
4	14742	62.338961860314	0.406666666668
4	14768	62.342295193648	0.410000000002
4	14887	62.941821541237	0.305000000001
4	14973	63.552254874571	0.305433333333
4	15276	64.16392154124	0.306666666668
4	15505	64.457194476489	0.308333333335
4	15629	64.594776569099	0.205000000001
4	15643	64.603109902434	0.315000000003
4	15767	64.863961143157	0.308433333335
4	15941	65.272494476492	0.308333333335
5	124	5.508905238737	0.101666666667
5	157	5.517238572072	0.211666666669
5	236	6.047288905529	0.203333333334
5	381	6.445446129422	0.101666666667
5	410	6.453955572197	0.203333333334
5	442	6.460622238865	0.210000000002
5	727	6.860446129425	0.313333333336
5	749	6.892111547989	0.101666666667
5	998	7.303778214658	0.310000000002
5	1042	7.333351727641	0.211666666669
5	1130	7.533351727641	0.208333333335
5	1290	8.00510999219	0.310000000002
5	1379	8.311776658858	0.413333333336
5	1570	9.828322446445	0.311666666669
5	1678	10.031655779779	0.210000000002
5	1816	10.176120139338	0.208333333335
5	1947	10.379453472672	0.310000000002
5	2167	10.508558132532	0.208333333335
5	2204	10.602601818447	0.210000000002
5	2234	10.610935151782	0.320000000004
5	2264	10.711891465866	0.310000000002
5	2488	12.253639628479	0.101666666667
5	2517	12.261972961814	0.415000000003
5	2761	13.127750570712	0.315000000003
5	2824	13.326083904045	0.310000000002
5	2980	13.751463169139	0.311666666669
5	3041	13.95646316914	0.313333333336
5	3258	15.493581351072	0.310000000002
5	3325	15.698581351073	0.413333333336
5	3332	15.724984268591	0.203333333334
5	3419	16.131673157481	0.203333333334
5	3456	16.140006490816	0.211666666669
5	3617	16.488184061867	0.101666666667
5	3733	16.696517395202	0.208333333335
5	3981	18.109735602947	0.101666666667
5	4031	18.200998651475	0.310000000002
5	4102	18.302665318142	0.310000000002
5	4190	18.521402269616	0.310000000002
5	4479	19.616411556829	0.210000000002
5	4507	19.624744890164	0.320000000004
5	4639	19.932350309998	0.415000000003
5	4699	20.134016976665	0.210000000002
5	4909	21.320039614371	0.101666666667
5	4935	21.326706281039	0.311666666669
5	5019	21.894125597353	0.101666666667
5	5171	22.309125597356	0.313333333336
5	5386	23.144676725228	0.208333333335
5	5391	23.146343391895	0.311666666669
5	5453	23.797477381869	0.406666666668
5	5602	24.15691847615	0.310000000002
5	5695	24.463585142818	0.413333333336
5	5939	25.790940939523	0.415000000003
5	5987	25.990940939523	0.310000000002
5	6172	26.800945353599	0.101666666667
5	6201	26.807612020267	0.311666666669
5	6398	27.44478968654	0.101666666667
5	6484	27.465979179542	0.311666666669
5	6599	27.654789686542	0.210000000002
5	6628	27.669312512876	0.210000000002
5	6678	27.917906298601	0.305000000001
5	6706	28.528039631935	0.305133333333
5	6922	29.143039631938	0.310000000002
5	6942	29.51521066992	0.101666666667
5	6987	29.718577336587	0.101666666667
5	7017	29.720244003254	0.103333333334
5	7338	30.894213091727	0.311666666669
5	7389	31.095879758394	0.310000000002
5	7452	31.330532155667	0.101666666667
5	7575	31.538865489002	0.208333333335
5	7775	32.539350954288	0.211666666669
5	7865	32.713354174251	0.211666666669
5	8121	33.116687507585	0.310000000002
5	8138	33.147684287623	0.413333333336
5	8317	33.968086954435	0.315000000003
5	8397	34.168086954435	0.210000000002
5	8640	35.577448388466	0.415000000003
5	8704	35.779115055133	0.210000000002
5	8930	36.721006283383	0.311666666669
5	8971	36.92267295005	0.310000000002
5	9165	37.643600323517	0.310000000002
5	9187	37.745266990184	0.310000000002
5	9528	40.263676521307	0.415000000003
5	9569	40.302545314198	0.210000000002
5	9735	40.505878647532	0.210000000002
5	9909	40.670343187975	0.313333333336
5	9992	40.795470882073	0.101666666667
5	10025	40.850401153294	0.415000000003
5	10051	40.948734486627	0.310000000002
5	10061	40.99893754874	0.1018
5	10171	41.202270882074	0.101666666667
5	10271	41.772092450842	0.101666666667
5	10316	41.975481339731	0.101666666667
5	10346	41.977148006398	0.103333333334
5	10615	42.86228140272	0.208333333335
5	10665	43.065614736054	0.310000000002
5	10807	45.034629327289	0.211666666669
5	10986	45.386431272013	0.101666666667
5	11045	45.437962660623	0.310000000002
5	11108	45.594764605348	0.208333333335
5	11312	47.867448100294	0.315000000003
5	11442	48.269114766961	0.310000000002
5	11528	48.703767872319	0.101666666667
5	11664	48.913767872321	0.210000000002
5	11839	49.564561260345	0.311666666669
5	11974	49.97289459368	0.313333333336
5	11991	50.071928777166	0.305000000001
5	12112	50.682128777166	0.305000000001
5	12141	50.688795443834	0.311666666669
5	12261	52.083580767569	0.305000000001
5	12267	52.094358175227	0.406666666668
5	12328	52.693880767571	0.305300000001
5	12636	53.138516921025	0.211666666669
5	12716	53.308880767574	0.310000000002
5	12735	53.338516921025	0.208333333335
5	12954	54.375560610124	0.315000000003
5	13007	54.573893943457	0.310000000002
5	13201	55.401610474218	0.310000000002
5	13222	55.503277140885	0.310000000002
5	13468	57.253969854422	0.415000000003
5	13558	57.455636521089	0.210000000002
5	13660	57.666238154184	0.305000000001
5	13923	57.930202300499	0.211666666669
5	14023	58.032196198107	0.310000000002
5	14050	58.043862864776	0.423333333338
5	14075	58.131868967166	0.210000000002
5	14239	58.464265319129	0.101666666667
5	14268	58.470931985797	0.311666666669
5	14484	59.99058386205	0.315000000003
5	14548	60.188917195383	0.208333333335
5	14774	62.347295193649	0.415000000003
5	14834	62.548961860316	0.210000000002
5	14948	63.424442854443	0.101666666667
5	15073	63.76392154124	0.211666666669
5	15279	64.167254874574	0.310000000002
5	15509	64.460527809823	0.311666666669
5	15633	64.598109902433	0.208333333335
5	15646	64.606443235768	0.318333333337
5	15776	64.868961143158	0.313433333336
5	15944	65.275827809826	0.311666666669
6	140	5.512238572071	0.105000000001
6	161	5.518905238739	0.213333333336
6	216	5.843955572195	0.203333333334
6	260	6.250622238863	0.203333333334
6	396	6.448779462756	0.105000000001
6	608	6.665622238866	0.211666666669
6	733	6.862112796092	0.315000000003
6	764	6.895444881323	0.105000000001
6	776	6.918329505416	0.203333333334
6	869	7.098778214657	0.105000000001
6	1001	7.325018394306	0.203333333334
6	1045	7.335018394308	0.213333333336
6	1204	7.803443325523	0.108333333335
6	1336	8.110109992191	0.211666666669
6	1489	9.626655779778	0.110000000002
6	1533	9.764453472669	0.101666666667
6	1626	9.967786806003	0.101666666667
6	1681	10.033322446446	0.211666666669
6	1764	10.096869243641	0.101666666667
6	1822	10.177786806005	0.108333333335
6	1907	10.300224799197	0.101688888889
6	1993	10.395935151779	0.105000000001
6	2176	10.510224799199	0.108333333335
6	2207	10.604268485114	0.211666666669
6	2409	12.060306295147	0.213333333336
6	2504	12.256972961813	0.105000000001
6	2736	13.121083904044	0.105000000001
6	2764	13.129417237379	0.31666666667
6	2882	13.544796502471	0.105000000001
6	3044	13.958129835807	0.315000000003
6	3160	15.291914684405	0.108333333335
6	3268	15.496914684406	0.211666666669
6	3460	16.141673157483	0.213333333336
6	3521	16.284806284089	0.101666666667
6	3544	16.34333982415	0.211666666669
6	3614	16.488184061867	0.101666666667
6	3660	16.493184061868	0.106666666668
6	3869	17.999331984808	0.108333333335
6	3954	18.100998651475	0.108333333335
6	3996	18.113068936281	0.105000000001
6	4132	18.316402269615	0.105000000001
6	4346	19.409744890161	0.105000000001
6	4482	19.618078223496	0.211666666669
6	4564	19.730683643331	0.213333333336
6	4702	20.135683643332	0.211666666669
6	4815	21.120039614371	0.105000000001
6	4925	21.323372947705	0.105000000001
6	5034	21.897458930687	0.105000000001
6	5174	22.310792264023	0.315000000003
6	5204	22.732954503004	0.101666666667
6	5245	22.936343391893	0.101666666667
6	5291	22.941343391894	0.106666666668
6	5516	23.955251809483	0.108333333335
6	5648	24.261918476151	0.211666666669
6	5833	25.589274272856	0.213333333336
6	5921	25.785940939522	0.105000000001
6	6089	26.6059453536	0.110000000002
6	6188	26.804278686933	0.105000000001
6	6319	27.264312512875	0.110000000002
6	6435	27.448123019874	0.105000000001
6	6602	27.656456353209	0.211666666669
6	6631	27.670979179543	0.211666666669
6	6796	28.741372965271	0.213333333336
6	6883	28.941372965271	0.108333333335
6	7027	29.721910669921	0.105000000001
6	7111	29.930244003256	0.211666666669
6	7233	30.69254642506	0.110000000002
6	7321	30.890879758393	0.105000000001
6	7396	31.127132155667	0.101666666667
6	7449	31.330532155667	0.101666666667
6	7495	31.335532155668	0.106666666668
6	7778	32.541017620955	0.213333333336
6	7868	32.715020840918	0.213333333336
6	8017	32.915020840918	0.108333333335
6	8048	32.946017620956	0.211666666669
6	8321	33.969753621102	0.31666666667
6	8400	34.169753621102	0.211666666669
6	8566	35.375781721799	0.213333333336
6	8707	35.7807817218	0.211666666669
6	8828	36.519339616716	0.110000000002
6	8913	36.717672950049	0.105000000001
6	9073	37.44193365685	0.108333333335
6	9127	37.543600323517	0.108333333335
6	9269	39.685745314196	0.203333333334
6	9399	40.06200985464	0.213333333336
6	9413	40.092545314196	0.203466666666
6	9738	40.507545314199	0.211666666669
6	9883	40.648734486627	0.213333333336
6	9912	40.672009854642	0.315000000003
6	9959	40.74706781996	0.108333333335
6	10185	41.205604215408	0.105000000001
6	10208	41.212270882076	0.213333333336
6	10356	41.978814673065	0.105000000001
6	10440	42.1871480064	0.211666666669
6	10478	42.450536958274	0.101666666667
6	10490	42.653948069385	0.101744444444
6	10621	42.863948069387	0.108333333335
6	10810	45.036295993956	0.213333333336
6	10877	45.182997938679	0.101666666667
6	10903	45.232962660622	0.105000000001
6	10983	45.386431272013	0.101666666667
6	11029	45.391431272014	0.106666666668
6	11315	47.869114766961	0.31666666667
6	11392	48.067448100294	0.108333333335
6	11565	48.707101205653	0.105000000001
6	11667	48.915434538988	0.211666666669
6	11785	49.362894593678	0.110000000002
6	11977	49.974561260347	0.315000000003
6	12062	50.482128777166	0.105000000001
6	12198	50.893795443835	0.211666666669
6	12361	52.7232946988	0.203333333334
6	12428	52.907214100907	0.213333333336
6	12584	53.107214100907	0.108333333335
6	12595	53.13018358769	0.203333333334
6	12639	53.140183587692	0.213333333336
6	12929	54.368893943456	0.105000000001
6	12957	54.377227276791	0.31666666667
6	13108	55.199943807551	0.108333333335
6	13160	55.301610474218	0.108333333335
6	13380	57.052303187755	0.213333333336
6	13561	57.457303187756	0.211666666669
6	13815	57.83052953144	0.108333333335
6	13858	57.842196198109	0.221666666671
6	13930	57.931868967166	0.213333333336
6	14078	58.133535633833	0.211666666669
6	14161	58.26926531913	0.110000000002
6	14255	58.467598652463	0.105000000001
6	14323	59.37021719538	0.305000000001
6	14443	59.980583862048	0.305000000001
6	14487	59.992250528717	0.31666666667
6	14702	62.145628526982	0.213333333336
6	14837	62.550628526983	0.211666666669
6	15076	63.765588207907	0.213333333336
6	15171	63.965588207907	0.108333333335
6	15288	64.186309902431	0.101666666667
6	15332	64.258861143156	0.110000000002
6	15426	64.389776569098	0.101666666667
6	15474	64.398109902433	0.110000000002
6	15779	64.870627809825	0.315100000003
6	15878	65.074161143159	0.110000000002
7	174	5.612238572071	0.205000000001
7	188	5.618905238739	0.313333333336
7	347	6.353955572197	0.103333333334
7	488	6.548779462756	0.205000000001
7	667	6.763955572199	0.310000000002
7	786	6.958779462758	0.411666666669
7	819	6.995444881323	0.205000000001
7	929	7.198778214657	0.205000000001
7	1080	7.42835172764	0.103333333334
7	1095	7.431685060974	0.310000000002
7	1195	7.800109992189	0.105000000001
7	1284	8.003443325523	0.105000000001
7	1473	9.61998911311	0.103333333334
7	1582	9.866120139336	0.101666666667
7	1702	10.06945347267	0.101666666667
7	1741	10.072786806004	0.105000000001
7	1774	10.129989113112	0.308333333335
7	2053	10.403558132531	0.103333333334
7	2100	10.495935151779	0.205000000001
7	2146	10.505224799198	0.103333333334
7	2252	10.70093515178	0.308333333335
7	2362	11.953639628479	0.106666666668
7	2534	12.356972961813	0.205000000001
7	2781	13.221083904044	0.205000000001
7	2803	13.226083904045	0.413333333336
7	2928	13.644796502471	0.205000000001
7	3055	14.054796502473	0.411666666669
7	3068	14.980225795514	0.101666666667
7	3080	15.18358135107	0.101688888889
7	3198	15.390248017738	0.105000000001
7	3495	16.238339824149	0.310000000002
7	3596	16.441673157483	0.310000000002
7	3691	16.591517395201	0.103333333334
7	3709	16.594850728535	0.208333333335
7	3761	17.687631984806	0.101666666667
7	3783	17.890998651473	0.1017
7	3932	18.095998651474	0.103333333334
7	4073	18.213068936281	0.205000000001
7	4162	18.416402269615	0.205000000001
7	4267	19.276509637844	0.305000000001
7	4392	19.509744890161	0.205000000001
7	4504	19.624016976663	0.106666666668
7	4538	19.714744890162	0.308333333335
7	4721	20.232350309998	0.308333333335
7	4868	21.220039614371	0.205000000001
7	4950	21.423372947705	0.205000000001
7	5072	21.997458930687	0.205000000001
7	5185	22.407458930689	0.411666666669
7	5329	23.039676725227	0.103333333334
7	5350	23.043010058561	0.208333333335
7	5507	23.951918476149	0.105000000001
7	5596	24.155251809483	0.105000000001
7	5786	25.482607606188	0.106666666668
7	5955	25.885940939522	0.205000000001
7	6056	26.544179179539	0.305000000001
7	6073	26.599278686932	0.103333333334
7	6220	26.904278686933	0.205000000001
7	6254	27.154312512873	0.305133333333
7	6507	27.548123019874	0.205000000001
7	6646	27.753123019875	0.308333333335
7	6662	27.767645846209	0.308333333335
7	6692	28.222906298602	0.305000000001
7	6812	28.833039631936	0.305000000001
7	6843	28.839706298604	0.311666666669
7	7056	29.821910669921	0.205000000001
7	7134	30.028577336589	0.310000000002
7	7217	30.685879758392	0.103333333334
7	7356	30.990879758393	0.205000000001
7	7527	31.433865489001	0.103333333334
7	7545	31.437198822335	0.208333333335
7	7838	32.637684287621	0.310000000002
7	7942	32.811687507584	0.310000000002
7	7960	32.839350954288	0.105000000001
7	8003	32.910020840917	0.103333333334
7	8356	34.066420287768	0.413333333336
7	8423	34.266420287768	0.308333333335
7	8519	35.269115055131	0.106666666668
7	8728	35.877448388466	0.308333333335
7	8745	36.002450727824	0.203333333334
7	8769	36.409339616714	0.203555555556
7	8944	36.817672950049	0.205000000001
7	8984	37.231866990182	0.101666666667
7	9025	37.435266990182	0.101666666667
7	9062	37.438600323516	0.105000000001
7	9342	39.955343187972	0.106666666668
7	9493	40.19587864753	0.103333333334
7	9765	40.542067819959	0.106666666668
7	9826	40.604211980865	0.308333333335
7	9938	40.742067819959	0.103333333334
7	9986	40.768676521308	0.411666666669
7	10229	41.305604215408	0.205000000001
7	10243	41.312270882076	0.313333333336
7	10385	42.078814673065	0.205000000001
7	10459	42.285481339733	0.310000000002
7	10484	42.552203624941	0.101666666667
7	10529	42.755614736052	0.101666666667
7	10568	42.758948069386	0.105000000001
7	10862	45.132962660622	0.310000000002
7	10959	45.332962660622	0.205000000001
7	11066	45.489764605347	0.103333333334
7	11084	45.493097938681	0.208333333335
7	11353	47.965781433627	0.413333333336
7	11378	48.062448100293	0.103333333334
7	11466	48.439250149232	0.406666666668
7	11602	48.807101205653	0.205000000001
7	11696	49.012101205654	0.308333333335
7	11726	49.252894593676	0.406977777776
7	11988	50.071227927013	0.411666666669
7	12090	50.582128777166	0.205000000001
7	12217	50.992128777168	0.310000000002
7	12293	52.38858076757	0.305000000001
7	12476	52.998880767572	0.305000000001
7	12507	53.00554743424	0.311666666669
7	12684	53.233516921024	0.103333333334
7	12699	53.236850254358	0.310000000002
7	12970	54.468893943456	0.205000000001
7	12992	54.473893943457	0.413333333336
7	13014	54.88815491866	0.101666666667
7	13026	55.091610474216	0.101788888889
7	13138	55.296610474217	0.103333333334
7	13333	56.945636521087	0.106666666668
7	13530	57.361238154183	0.305000000001
7	13586	57.518740642549	0.101666666667
7	13600	57.553969854422	0.308333333335
7	13688	57.722196198105	0.101666666667
7	13723	57.727196198106	0.106666666668
7	14010	58.028535633832	0.310000000002
7	14128	58.230202300499	0.308333333335
7	14145	58.262598652462	0.103333333334
7	14281	58.567598652463	0.205000000001
7	14510	60.083917195382	0.103333333334
7	14529	60.088917195383	0.413333333336
7	14655	62.038961860314	0.106666666668
7	14860	62.647295193649	0.308333333335
7	14938	63.335083365374	0.406666666668
7	14951	63.434519232682	0.203333333334
7	15125	63.862254874573	0.310000000002
7	15157	63.960588207906	0.103333333334
7	15235	64.148861143154	0.407111111112
7	15391	64.352661083751	0.305000000001
7	15456	64.391443235765	0.103333333334
7	15538	64.493109902432	0.103333333334
7	15799	64.964161143157	0.306500059405
7	15825	64.967294476491	0.411766666669
8	181	5.615571905405	0.208333333335
8	191	5.622238572073	0.31666666667
8	338	6.35228890553	0.101666666667
8	499	6.55211279609	0.208333333335
8	670	6.7689555722	0.315000000003
8	789	6.965446129426	0.418333333337
8	832	6.998778214657	0.208333333335
8	939	7.202111547991	0.208333333335
8	986	7.28844332552	0.203333333334
8	1072	7.426685060973	0.101666666667
8	1103	7.438351727642	0.31666666667
8	1144	7.695109992188	0.203333333334
8	1340	8.111776658858	0.213333333336
8	1401	8.906622446441	0.305000000001
8	1429	9.516655779776	0.305033333334
8	1704	10.06945347267	0.101666666667
8	1777	10.13665577978	0.315000000003
8	1795	10.171120139337	0.101666666667
8	1841	10.198535910308	0.101666666667
8	2018	10.401891465864	0.101666666667
8	2052	10.403558132531	0.103333333334
8	2111	10.499268485113	0.208333333335
8	2258	10.707601818448	0.315000000003
8	2412	12.061972961814	0.215000000003
8	2541	12.360306295147	0.208333333335
8	2795	13.224417237378	0.208333333335
8	2806	13.232750570713	0.420000000004
8	2940	13.648129835805	0.208333333335
8	3058	14.061463169141	0.418333333337
8	3119	15.285248017737	0.101666666667
8	3273	15.498581351073	0.213333333336
8	3513	16.245006490817	0.31666666667
8	3599	16.446673157484	0.315000000003
8	3681	16.589850728534	0.101666666667
8	3717	16.596517395202	0.210000000002
8	3771	17.789298651473	0.101666666667
8	3824	17.99266531814	0.101666666667
8	3852	17.994331984807	0.103333333334
8	4086	18.216402269615	0.208333333335
8	4172	18.419735602949	0.208333333335
8	4403	19.513078223495	0.208333333335
8	4544	19.72141155683	0.315000000003
8	4567	19.732350309998	0.215000000003
8	4724	20.239016976666	0.315000000003
8	4882	21.223372947705	0.208333333335
8	4957	21.426706281039	0.208333333335
8	5083	22.000792264021	0.208333333335
8	5188	22.414125597357	0.418333333337
8	5319	23.03801005856	0.101666666667
8	5361	23.044676725228	0.210000000002
8	5421	23.440162920592	0.203333333334
8	5456	23.846918476148	0.203422222222
8	5652	24.263585142818	0.213333333336
8	5836	25.590940939523	0.215000000003
8	5966	25.889274272856	0.208333333335
8	5990	26.089100909152	0.203333333334
8	6023	26.495945353598	0.203511111112
8	6227	26.907612020267	0.208333333335
8	6299	27.25597917954	0.101666666667
8	6522	27.551456353208	0.208333333335
8	6649	27.759789686543	0.315000000003
8	6665	27.774312512877	0.315000000003
8	6849	28.844706298605	0.31666666667
8	6864	28.934706298603	0.101666666667
8	7071	29.825244003255	0.208333333335
8	7137	30.03357733659	0.315000000003
8	7153	30.17567975839	0.203333333334
8	7173	30.582546425058	0.203533333334
8	7366	30.994213091727	0.208333333335
8	7517	31.432198822334	0.101666666667
8	7553	31.438865489002	0.210000000002
8	7637	32.19645417425	0.305000000001
8	7841	32.644350954289	0.31666666667
8	7912	32.806687507583	0.305000000001
8	7949	32.818354174252	0.31666666667
8	8051	32.947684287623	0.213333333336
8	8375	34.073086954436	0.420000000004
8	8426	34.273086954436	0.315000000003
8	8569	35.377448388466	0.215000000003
8	8731	35.884115055134	0.315000000003
8	8808	36.511006283381	0.101666666667
8	8954	36.821006283383	0.208333333335
8	8978	37.130200323515	0.101666666667
8	8990	37.333600323515	0.101733333333
8	9096	37.536933656849	0.101666666667
8	9402	40.063676521307	0.215000000003
8	9484	40.194211980863	0.101666666667
8	9512	40.231867819957	0.203333333334
8	9829	40.610878647533	0.315000000003
8	9838	40.638734486625	0.203333333334
8	9887	40.650401153294	0.215000000003
8	9989	40.775343187976	0.418333333337
8	10236	41.308937548742	0.208333333335
8	10246	41.31560421541	0.31666666667
8	10400	42.082148006399	0.208333333335
8	10462	42.290481339734	0.315000000003
8	10531	42.755614736052	0.101666666667
8	10594	42.857281402719	0.101666666667
8	10868	45.13962932729	0.31666666667
8	10969	45.336295993956	0.208333333335
8	11056	45.48809793868	0.101666666667
8	11092	45.494764605348	0.210000000002
8	11138	46.54061736815	0.203333333334
8	11173	47.145336989179	0.406666666668
8	11322	47.959114766959	0.406666666668
8	11359	47.972448100295	0.420000000004
8	11617	48.810434538987	0.208333333335
8	11699	49.018767872322	0.315000000003
8	11765	49.354561260343	0.101666666667
8	11997	50.077894593681	0.418333333337
8	12100	50.5854621105	0.208333333335
8	12220	50.997128777169	0.315000000003
8	12513	53.010547434241	0.31666666667
8	12565	53.100547434239	0.101666666667
8	12676	53.231850254357	0.101666666667
8	12707	53.243516921026	0.31666666667
8	12984	54.47222727679	0.208333333335
8	12995	54.480560610125	0.420000000004
8	13020	54.989821585327	0.101666666667
8	13063	55.193277140883	0.101666666667
8	13091	55.19494380755	0.103333333334
8	13383	57.053969854422	0.215000000003
8	13603	57.56063652109	0.315000000003
8	13761	57.752243096906	0.203333333334
8	13784	57.823862864772	0.101666666667
8	13841	57.835529531441	0.215000000003
8	14031	58.0352023005	0.31666666667
8	14091	58.159265319128	0.203688888888
8	14131	58.236868967167	0.315000000003
8	14288	58.570931985797	0.208333333335
8	14502	60.082250528715	0.101666666667
8	14533	60.095583862051	0.420000000004
8	14705	62.147295193649	0.215000000003
8	14863	62.653961860317	0.315000000003
8	14921	63.246821541238	0.305000000001
8	15095	63.857254874572	0.305000000001
8	15132	63.868921541241	0.31666666667
8	15222	64.084643235764	0.101666666667
8	15307	64.250527809821	0.101666666667
8	15349	64.288109902431	0.1018
8	15530	64.491443235765	0.101666666667
8	15833	64.973961143159	0.418433333337
8	15857	65.065827809824	0.101666666667
9	198	5.712238572071	0.305000000001
9	201	5.718905238739	0.413333333336
9	411	6.453955572197	0.203333333334
9	558	6.648779462756	0.305000000001
9	730	6.860622238865	0.406666666668
9	842	7.055446129424	0.508333333335
9	853	7.095444881323	0.305000000001
9	992	7.298778214657	0.305000000001
9	1112	7.491776658854	0.203333333334
9	1120	7.52835172764	0.203333333334
9	1127	7.531685060974	0.410000000002
9	1217	7.898443325522	0.203333333334
9	1243	7.900109992189	0.205000000001
9	1507	9.71998911311	0.203333333334
9	1793	10.171120139337	0.101666666667
9	1804	10.172786806004	0.205000000001
9	1847	10.228322446445	0.406666666668
9	2130	10.503558132531	0.203333333334
9	2192	10.595935151779	0.305000000001
9	2212	10.605224799198	0.203333333334
9	2271	10.799268485113	0.406666666668
9	2289	11.23687296181	0.305000000001
9	2317	11.846972961811	0.3051
9	2553	12.456972961813	0.305000000001
9	2815	13.321083904044	0.305000000001
9	2821	13.324417237378	0.511666666669
9	2958	13.744796502471	0.305000000001
9	3061	14.151463169139	0.508333333335
9	3074	15.081892462181	0.101666666667
9	3117	15.285248017737	0.101666666667
9	3144	15.286914684404	0.103333333334
9	3534	16.336673157482	0.408333333335
9	3670	16.538339824149	0.406666666668
9	3723	16.691517395201	0.203333333334
9	3730	16.694850728535	0.308333333335
9	3825	17.99266531814	0.101666666667
9	4013	18.195998651474	0.203333333334
9	4116	18.313068936281	0.305000000001
9	4184	18.516402269615	0.305000000001
9	4201	18.703928087771	0.406666666668
9	4416	19.517350309995	0.406755555556
9	4467	19.609744890161	0.305000000001
9	4578	19.813078223495	0.406666666668
9	4733	20.330683643331	0.406666666668
9	4905	21.320039614371	0.305000000001
9	4964	21.523372947705	0.305000000001
9	5094	22.097458930687	0.305000000001
9	5191	22.504125597355	0.508333333335
9	5373	23.139676725227	0.203333333334
9	5383	23.143010058561	0.308333333335
9	5415	23.390810715201	0.406666666668
9	5439	23.643496253926	0.203333333334
9	5529	24.050251809482	0.203333333334
9	5555	24.051918476149	0.205000000001
9	5713	24.765674272851	0.305000000001
9	5741	25.37594093952	0.305266666668
9	5977	25.985940939522	0.305000000001
9	6107	26.699278686932	0.203333333334
9	6237	27.004278686933	0.305000000001
9	6298	27.25597917954	0.101666666667
9	6587	27.648123019874	0.305000000001
9	6672	27.851456353208	0.406666666668
9	6675	27.865979179542	0.406666666668
9	6862	28.934706298603	0.101666666667
9	6871	28.93637296527	0.408333333335
9	7096	29.921910669921	0.305000000001
9	7150	30.125244003255	0.406666666668
9	7247	30.785879758392	0.203333333334
9	7383	31.090879758393	0.305000000001
9	7565	31.533865489001	0.203333333334
9	7572	31.537198822335	0.308333333335
9	7615	31.920750954287	0.406666666668
9	7875	32.734350954287	0.406666666668
9	7897	32.736017620954	0.408333333335
9	8005	32.910020840917	0.408333333335
9	8064	33.010020840917	0.203333333334
9	8390	34.163086954434	0.510000000002
9	8435	34.348848388463	0.406666666668
9	8441	34.364753621101	0.406666666668
9	8474	35.162448388463	0.406933333332
9	8742	35.975781721799	0.406666666668
9	8807	36.511006283381	0.101666666667
9	8965	36.917672950049	0.305000000001
9	9094	37.536933656849	0.101666666667
9	9106	37.538600323516	0.205000000001
9	9220	38.831732076859	0.508333333335
9	9287	39.848676521304	0.50861111111
9	9373	40.028534486623	0.203333333334
9	9538	40.29587864753	0.203333333334
9	9656	40.435401153291	0.203533333334
9	9923	40.702545314198	0.406666666668
9	10000	40.842067819959	0.203333333334
9	10036	40.865343187974	0.508333333335
9	10255	41.405604215408	0.305000000001
9	10258	41.412270882076	0.413333333336
9	10425	42.178814673065	0.305000000001
9	10475	42.382148006399	0.406666666668
9	10592	42.857281402719	0.101666666667
9	10603	42.858948069386	0.205000000001
9	10896	45.231295993955	0.408333333335
9	11039	45.432962660622	0.305000000001
9	11098	45.589764605347	0.203333333334
9	11105	45.593097938681	0.308333333335
9	11158	46.743950701484	0.203333333334
9	11380	48.062448100293	0.510000000002
9	11409	48.162448100293	0.203333333334
9	11652	48.907101205653	0.305000000001
9	11716	49.110434538987	0.406666666668
9	11764	49.354561260343	0.101666666667
9	12000	50.167894593679	0.508333333335
9	12113	50.682128777166	0.305000000001
9	12229	51.088795443834	0.406666666668
9	12311	52.501024841895	0.406666666668
9	12563	53.100547434239	0.101666666667
9	12572	53.102214100906	0.408333333335
9	12725	53.333516921024	0.203333333334
9	12732	53.336850254358	0.410000000002
9	12998	54.568893943456	0.305000000001
9	13004	54.57222727679	0.511666666669
9	13064	55.193277140883	0.101666666667
9	13183	55.396610474217	0.203333333334
9	13251	56.025236521083	0.406666666668
9	13288	56.838969854419	0.407066666668
9	13541	57.417073975882	0.101666666667
9	13620	57.620529531438	0.101788888889
9	13657	57.652303187755	0.406666666668
9	13782	57.823862864772	0.101666666667
9	14068	58.126868967165	0.408333333335
9	14172	58.328535633832	0.406666666668
9	14178	58.362598652462	0.203333333334
9	14294	58.667598652463	0.305000000001
9	14538	60.183917195382	0.203333333334
9	14545	60.187250528716	0.511666666669
9	14574	61.118472971422	0.406666666668
9	14610	61.932295193646	0.407155555556
9	14876	62.745628526982	0.406666666668
9	15159	63.960588207906	0.408333333335
9	15197	64.060588207906	0.203333333334
9	15306	64.250527809821	0.101666666667
9	15527	64.491443235765	0.203333333334
9	15625	64.593109902432	0.203333333334
9	15848	65.063861143157	0.508333333335
9	15856	65.065827809824	0.101666666667

