version 2
run General-2-20190529-16:32:52-16916
attr configname General
attr datetime 20190529-16:32:52
attr experiment General
attr inifile omnetpp.ini
attr iterationvars ""
attr iterationvarsf ""
attr measurement ""
attr network networks.Net5
attr processid 16916
attr repetition 2
attr replication #2
attr resultdir results
attr runnumber 2
attr seedset 2
param **.appType "\"App\""
param **.app.packetLength "1500 bytes"
param **.app.totalNodes 3
param **.destAddresses "\"0\""
param **.sendIaTime "uniform(5s, 10s)"
param **.sendIaTimeEvil 10ms

vector 0 Net5.rte[0].app endToEndDelay:vector ETV
attr interpolationmode none
attr title "end-to-end delay of arrived packets, vector"
attr unit s
vector 1 Net5.rte[2].app endToEndDelay:vector ETV
attr interpolationmode none
attr title "end-to-end delay of arrived packets, vector"
attr unit s
vector 2 Net5.rte[1].app endToEndDelay:vector ETV
attr interpolationmode none
attr title "end-to-end delay of arrived packets, vector"
attr unit s
0	7	5.231297806238	0.101666666667
0	19	5.434631139572	0.101666666667
0	48	5.637964472906	0.101666666667
0	83	6.332077074031	0.101666666667
0	97	6.433743740698	0.101666666667
0	111	7.383307846462	0.101666666667
0	131	7.586652290907	0.101666666667
0	141	7.588318957574	0.103333333334
0	181	12.139013320973	0.101666666667
0	195	12.24067998764	0.101666666667
0	203	14.190765727179	0.101666666667
0	215	14.394121282735	0.101688888889
0	244	14.597454616069	0.101666666667
0	258	14.951198435587	0.101666666667
0	278	15.154565102254	0.101666666667
0	288	15.156231768921	0.103333333334
0	330	19.711886411866	0.101666666667
0	344	21.390542535077	0.101666666667
0	364	21.593920312855	0.101666666667
0	374	21.595586979522	0.103333333334
0	397	21.716996171379	0.101666666667
0	429	21.920373949157	0.101711111111
1	13	5.332964472905	0.101666666667
1	33	5.536297806239	0.101666666667
1	43	5.537964472906	0.103333333334
1	56	6.02707707403	0.101666666667
1	68	6.230410407364	0.101666666667
1	98	6.433743740698	0.101666666667
1	105	7.281641179795	0.101666666667
1	117	7.48498562424	0.101677777778
1	147	7.688318957574	0.101666666667
1	160	11.935646654306	0.101666666667
1	180	12.139013320973	0.101666666667
1	190	12.14067998764	0.103333333334
1	230	14.495787949402	0.101666666667
1	245	14.597454616069	0.101666666667
1	252	14.84953176892	0.101666666667
1	264	15.052898435587	0.1017
1	294	15.256231768921	0.101666666667
1	307	19.40683085631	0.101666666667
1	319	19.610219745199	0.101666666667
1	338	21.28887586841	0.101666666667
1	350	21.492253646188	0.101711111111
1	392	21.695586979522	0.101666666667
1	454	22.022040615824	0.101666666667
1	474	22.126996171379	0.101666666667
1	506	22.330373949157	0.101711111111
2	34	5.536297806239	0.101666666667
2	49	5.637964472906	0.101666666667
2	62	6.128743740697	0.101666666667
2	82	6.332077074031	0.101666666667
2	92	6.333743740698	0.103333333334
2	132	7.586652290907	0.101666666667
2	146	7.688318957574	0.101666666667
2	154	11.833979987639	0.101666666667
2	166	12.037346654306	0.1017
2	196	12.24067998764	0.101666666667
2	209	14.292432393846	0.101666666667
2	229	14.495787949402	0.101666666667
2	239	14.497454616069	0.103333333334
2	279	15.154565102254	0.101666666667
2	293	15.256231768921	0.101666666667
2	301	19.305164189643	0.101666666667
2	313	19.508553078532	0.101722222222
2	331	19.711886411866	0.101666666667
2	365	21.593920312855	0.101666666667
2	391	21.695586979522	0.101666666667
2	413	21.818662838046	0.101666666667
2	453	22.022040615824	0.101666666667
2	457	22.023707282491	0.103333333334
2	490	22.228662838046	0.101666666667

