version 2
run General-33-20190610-18:04:01-20596
attr configname General
attr datetime 20190610-18:04:01
attr experiment General
attr inifile omnetpp.ini
attr iterationvars ""
attr iterationvarsf ""
attr measurement ""
attr network networks.Net5
attr processid 20596
attr repetition 33
attr replication #33
attr resultdir results
attr runnumber 33
attr seedset 33
param **.appType "\"App\""
param **.app.packetLength "1500 bytes"
param **.app.totalNodes 10
param **.destAddresses "\"0\""
param **.sendIaTime "uniform(5s, 10s)"
param **.sendIaTimeEvil 10ms

vector 0 Net5.rte[3].app endToEndDelay:vector ETV
attr interpolationmode none
attr title "end-to-end delay of arrived packets, vector"
attr unit s
vector 1 Net5.rte[7].app endToEndDelay:vector ETV
attr interpolationmode none
attr title "end-to-end delay of arrived packets, vector"
attr unit s
vector 2 Net5.rte[0].app endToEndDelay:vector ETV
attr interpolationmode none
attr title "end-to-end delay of arrived packets, vector"
attr unit s
vector 3 Net5.rte[9].app endToEndDelay:vector ETV
attr interpolationmode none
attr title "end-to-end delay of arrived packets, vector"
attr unit s
vector 4 Net5.rte[5].app endToEndDelay:vector ETV
attr interpolationmode none
attr title "end-to-end delay of arrived packets, vector"
attr unit s
vector 5 Net5.rte[8].app endToEndDelay:vector ETV
attr interpolationmode none
attr title "end-to-end delay of arrived packets, vector"
attr unit s
vector 6 Net5.rte[4].app endToEndDelay:vector ETV
attr interpolationmode none
attr title "end-to-end delay of arrived packets, vector"
attr unit s
vector 7 Net5.rte[2].app endToEndDelay:vector ETV
attr interpolationmode none
attr title "end-to-end delay of arrived packets, vector"
attr unit s
vector 8 Net5.rte[6].app endToEndDelay:vector ETV
attr interpolationmode none
attr title "end-to-end delay of arrived packets, vector"
attr unit s
vector 9 Net5.rte[1].app endToEndDelay:vector ETV
attr interpolationmode none
attr title "end-to-end delay of arrived packets, vector"
attr unit s
0	11	5.753043357249	0.203333333334
0	31	6.159710023917	0.203333333334
0	226	6.571376690586	0.208333333335
0	411	7.367550634784	0.210000000002
0	501	7.567550634784	0.105000000001
0	609	7.768037334975	0.103333333334
0	767	8.073037334976	0.205000000001
0	875	8.374877108266	0.210000000002
0	1001	8.674877108266	0.205000000001
0	1013	8.753072368845	0.203333333334
0	1044	8.856284905558	0.101666666667
0	1134	9.159761257735	0.203333333334
0	1176	9.166427924403	0.210000000002
0	1405	10.320123159439	0.106666666668
0	1546	10.477011754084	0.210000000002
0	1581	10.520123159439	0.103333333334
0	1684	10.675345087417	0.103333333334
0	1823	13.258735395861	0.103333333334
0	2016	13.466880060593	0.103333333334
0	2061	13.563735395862	0.205000000001
0	2145	13.673546727261	0.208333333335
0	2440	14.737966530711	0.308333333335
0	2482	14.768719603295	0.206666666668
0	2588	14.941299864045	0.105000000001
0	2627	14.973719603296	0.208333333335
0	2752	15.199530838649	0.103333333334
0	2836	15.306258558629	0.101666666667
0	2911	15.509614114185	0.101688888889
0	2953	15.606197505317	0.306666666668
0	3049	15.714614114186	0.103333333334
0	3178	16.578381541272	0.105000000001
0	3245	16.780048207939	0.103333333334
0	3308	17.154123260839	0.101666666667
0	3347	17.357489927506	0.101666666667
0	3382	17.362489927507	0.106666666668
0	3669	20.367282204053	0.105000000001
0	3803	20.775615537388	0.208333333335
0	3843	21.061203548884	0.203333333334
0	3875	21.467936882218	0.2034
0	4053	21.876270215553	0.205000000001
0	4127	22.253122373505	0.105000000001
0	4258	22.66145570684	0.208333333335
0	4362	23.427645265818	0.103333333334
0	4452	23.630978599152	0.103333333334
0	4637	24.571689531701	0.205000000001
0	4675	24.673356198368	0.103333333334
0	4807	25.4387637248	0.103333333334
0	4907	25.645430391468	0.208333333335
0	4951	25.812006397605	0.101666666667
0	5008	26.026925072428	0.105000000001
0	5090	26.230258405762	0.105000000001
0	5361	29.027126426735	0.205000000001
0	5405	29.128793093402	0.205000000001
0	5508	29.789632712247	0.105000000001
0	5575	29.991299378914	0.103333333334
0	5819	30.991992426265	0.205000000001
0	5840	31.0003257596	0.315000000003
0	5852	31.096731495045	0.203333333334
0	5949	31.503509272823	0.203333333334
0	5986	31.506842606157	0.206666666668
0	6201	32.22252743577	0.206666666668
0	6268	32.427527435771	0.208333333335
0	6428	35.066259331279	0.210000000002
0	6506	35.266259331279	0.105000000001
0	6570	35.451033929197	0.305000000001
0	6649	36.061133929198	0.3051
0	6843	36.382760222457	0.105000000001
0	6993	36.672800595867	0.306666666668
0	7052	36.791093555792	0.208333333335
0	7213	37.710678331847	0.103333333334
0	7215	37.710678331847	0.205000000001
0	7369	38.690053265009	0.203333333334
0	7498	38.891143648415	0.103333333334
0	7528	38.897810315083	0.211666666669
0	7653	39.023328708427	0.210000000002
0	7725	39.22166204176	0.205000000001
0	7828	39.653753412684	0.103333333334
0	7914	39.860420079352	0.208333333335
0	8032	41.71440974872	0.103333333334
0	8255	42.121076415388	0.306666666668
0	8366	42.319102669442	0.210000000002
0	8499	42.459778471141	0.105000000001
0	8526	42.520769336109	0.208333333335
0	8611	42.663111804475	0.105000000001
0	8726	44.953353739909	0.101666666667
0	8783	45.156753739909	0.101733333333
0	8937	45.293510799737	0.210000000002
0	8978	45.36175373991	0.103333333334
0	9133	45.593510799737	0.205000000001
0	9316	47.743695628297	0.203333333334
0	9331	47.772391236052	0.205000000001
0	9520	48.080724569387	0.208333333335
0	9629	48.220061362223	0.103333333334
0	9651	48.226728028891	0.313333333336
0	9733	48.579297621124	0.106666666668
0	9988	48.982630954458	0.205000000001
0	10013	49.001935908068	0.103333333334
0	10050	49.010269241403	0.213333333336
0	10254	50.489808995388	0.210000000002
0	10432	50.867049602181	0.106666666668
0	10467	50.891475662055	0.306666666668
0	10615	51.270382935515	0.205000000001
0	10690	51.492249602186	0.105000000001
0	10772	51.69558293552	0.105000000001
0	10988	52.947357943975	0.103333333334
0	10990	52.947357943975	0.205000000001
0	11080	53.150591324516	0.101666666667
0	11148	53.354013546739	0.101666666667
0	11189	53.357346880073	0.105000000001
0	11369	54.08114272792	0.205000000001
0	11469	54.389476061255	0.208333333335
0	11623	56.288978580306	0.106666666668
0	11757	56.425078169873	0.103333333334
0	11794	56.488978580306	0.103333333334
0	11917	56.597592944013	0.203333333334
0	12008	56.831744836541	0.306666666668
0	12024	57.004459610681	0.203533333334
0	12181	57.412792944016	0.205000000001
0	12306	59.496641670147	0.105000000001
0	12393	59.698308336814	0.103333333334
0	12619	60.507046589479	0.210000000002
0	12771	60.807046589479	0.205000000001
0	12791	60.892688190267	0.105000000001
0	12906	61.005407324724	0.105000000001
0	13056	61.413740658059	0.208333333335
0	13106	61.947871964358	0.203333333334
0	13185	62.354760853248	0.203333333334
0	13221	62.358094186582	0.206666666668
0	13421	64.769556055395	0.210000000002
0	13493	64.967889388728	0.103333333334
0	13896	66.001664326739	0.210000000002
0	14006	66.199997660072	0.205000000001
0	14200	66.734079666322	0.210000000002
0	14344	67.034079666322	0.205000000001
0	14454	67.400578802418	0.106666666668
0	14822	68.134820700254	0.103333333334
0	14824	68.134820700254	0.205000000001
1	21	5.956376690583	0.203333333334
1	114	6.363043357251	0.203333333334
1	150	6.369710023919	0.210000000002
1	208	6.54755063478	0.305000000001
1	304	7.157550634782	0.305000000001
1	483	7.554877108262	0.305000000001
1	649	7.777550634786	0.315000000003
1	753	7.97637066831	0.311666666669
1	777	8.078037334977	0.210000000002
1	780	8.164877108264	0.305000000001
1	945	8.549739035511	0.203333333334
1	1018	8.75341287355	0.305000000001
1	1035	8.779877108267	0.310000000002
1	1052	8.956427924401	0.203355555556
1	1257	9.36809459107	0.208333333335
1	1552	10.482011754085	0.215000000003
1	1572	10.518456492772	0.101666666667
1	1608	10.530123159441	0.31666666667
1	1734	10.883678420752	0.311666666669
1	1983	13.465213393926	0.101666666667
1	2024	13.467068729196	0.311666666669
1	2087	13.568735395863	0.210000000002
1	2151	13.678546727262	0.213333333336
1	2235	14.358630714405	0.203333333334
1	2446	14.744633197379	0.315000000003
1	2450	14.765386269961	0.203333333334
1	2492	14.773719603296	0.211666666669
1	2738	15.151299864047	0.315000000003
1	2877	15.407864171984	0.311666666669
1	2989	15.612864171985	0.313333333336
1	3039	15.712947447519	0.101666666667
1	3072	15.719614114187	0.210000000002
1	3163	16.575048207938	0.101666666667
1	3299	16.988381541274	0.311666666669
1	3489	17.565823260841	0.208333333335
1	3502	17.572489927509	0.31666666667
1	3567	19.957115537386	0.305000000001
1	3720	20.567282204053	0.305000000001
1	3749	20.575615537388	0.313333333336
1	3997	21.67793688222	0.210000000002
1	4063	21.881270215554	0.210000000002
1	4204	22.46145570684	0.313333333336
1	4264	22.666455706841	0.213333333336
1	4478	23.635978599153	0.311666666669
1	4512	23.839311932487	0.311666666669
1	4668	24.671689531701	0.101666666667
1	4694	24.678356198369	0.311666666669
1	4722	25.233697058133	0.101666666667
1	4775	25.437097058133	0.101666666667
1	4806	25.4387637248	0.103333333334
1	5107	26.235258405763	0.313333333336
1	5165	26.440258405764	0.315000000003
1	5386	29.032126426736	0.210000000002
1	5427	29.233793093403	0.310000000002
1	5493	29.786299378913	0.101666666667
1	5625	30.199632712249	0.311666666669
1	5833	30.996992426266	0.210000000002
1	5846	31.005325759601	0.320000000004
1	6002	31.603736879836	0.305000000001
1	6050	31.610175939491	0.310000000002
1	6075	31.711842606158	0.208333333335
1	6086	31.812371880214	0.203333333334
1	6169	32.219194102436	0.203333333334
1	6211	32.227527435771	0.211666666669
1	6312	34.24609266461	0.305000000001
1	6340	34.856259331277	0.305166666666
1	6593	35.476259331281	0.315000000003
1	6753	36.269467262533	0.208333333335
1	6982	36.591093555792	0.313333333336
1	6999	36.679467262535	0.313333333336
1	7058	36.796093555793	0.213333333336
1	7272	37.815678331848	0.310000000002
1	7283	37.919011665182	0.311666666669
1	7312	38.482732537303	0.101666666667
1	7344	38.686143648414	0.101744444444
1	7491	38.889476981748	0.101666666667
1	7660	39.028328708428	0.215000000003
1	7735	39.226662041761	0.210000000002
1	7751	39.448642301572	0.101666666667
1	7796	39.652086746017	0.101666666667
1	7827	39.653753412684	0.103333333334
1	8015	41.702324891662	0.203333333334
1	8166	41.922743082055	0.311666666669
1	8221	42.10910266944	0.203444444444
1	8264	42.127743082056	0.313333333336
1	8484	42.456445137807	0.101666666667
1	8532	42.52576933611	0.213333333336
1	8680	42.873111804477	0.315000000003
1	8943	45.298510799738	0.215000000003
1	9001	45.365087073244	0.208333333335
1	9124	45.570087073245	0.311666666669
1	9145	45.645693565152	0.305000000001
1	9154	45.698510799738	0.310000000002
1	9386	47.87905790272	0.311666666669
1	9526	48.085724569388	0.213333333336
1	9622	48.218394695556	0.101666666667
1	9655	48.228394695558	0.315000000003
1	9848	48.789297621126	0.31666666667
1	9998	48.987630954459	0.210000000002
1	10077	49.106935908069	0.310000000002
1	10091	49.210269241403	0.311666666669
1	10260	50.494808995389	0.215000000003
1	10473	50.898142328723	0.313333333336
1	10561	51.077049602183	0.31666666667
1	10637	51.375382935516	0.310000000002
1	10789	51.700582935521	0.313333333336
1	10847	51.905582935522	0.315000000003
1	11062	53.052357943976	0.310000000002
1	11089	53.15569127731	0.311666666669
1	11139	53.280960443362	0.203333333334
1	11151	53.354013546739	0.101666666667
1	11272	53.562346880074	0.208333333335
1	11414	54.187809394588	0.311666666669
1	11475	54.394476061256	0.213333333336
1	11835	56.498978580308	0.31666666667
1	11955	56.633411503208	0.311666666669
1	11966	56.697311913641	0.311666666669
1	12014	56.838411503209	0.313333333336
1	12135	57.214459610683	0.210000000002
1	12191	57.417792944017	0.210000000002
1	12291	59.493308336813	0.101666666667
1	12460	59.906641670149	0.311666666669
1	12625	60.51204658948	0.215000000003
1	12640	60.595007324723	0.305000000001
1	12857	60.91204658948	0.310000000002
1	12940	61.102688190269	0.315000000003
1	12973	61.205407324724	0.305000000001
1	13002	61.213740658059	0.313333333336
1	13270	62.461427519916	0.310000000002
1	13287	62.563094186583	0.208333333335
1	13305	63.949189388725	0.305000000001
1	13333	64.559556055393	0.305366666667
1	13568	65.176222722063	0.311666666669
1	13624	65.384775437847	0.203333333334
1	13740	65.791664326737	0.203555555556
1	13835	65.913646332986	0.305000000001
1	14017	66.204997660073	0.210000000002
1	14083	66.52407966632	0.305433333333
1	14376	67.139079666323	0.310000000002
1	14564	67.61057880242	0.31666666667
1	14785	68.069769775161	0.305000000001
1	14928	68.239820700255	0.310000000002
2	75	6.261376690584	0.101666666667
2	243	6.606498479444	0.305000000001
2	253	6.668043357252	0.305000000001
2	280	6.852550634781	0.305000000001
2	437	7.462550634783	0.305000000001
2	460	7.46421730145	0.306666666668
2	661	7.868037334975	0.203333333334
2	807	8.173037334976	0.305000000001
2	925	8.471543774932	0.306666666668
2	1029	8.774877108266	0.305000000001
2	1199	9.261427924402	0.101666666667
2	1213	9.263094591069	0.306666666668
2	1289	9.806789826103	0.203333333334
2	1327	10.213456492771	0.203333333334
2	1634	10.57367842075	0.306666666668
2	1658	10.620123159439	0.203333333334
2	1710	10.775345087417	0.203333333334
2	1863	13.358735395861	0.203333333334
2	2072	13.566880060593	0.203333333334
2	2130	13.663735395862	0.305000000001
2	2166	13.770213393927	0.305000000001
2	2193	14.02287764182	0.406666666668
2	2503	14.836299864044	0.406666666668
2	2525	14.837966530711	0.408333333335
2	2543	14.868719603295	0.306666666668
2	2677	15.070386269962	0.305000000001
2	2789	15.299530838649	0.203333333334
2	2966	15.611280780852	0.101666666667
2	3024	15.706197505317	0.406666666668
2	3080	15.814614114186	0.203333333334
2	3218	16.678381541272	0.205000000001
2	3271	16.880048207939	0.203333333334
2	3302	17.052456594172	0.101666666667
2	3314	17.255823260839	0.1017
2	3418	17.459156594173	0.101666666667
2	3594	20.075788345487	0.305000000001
2	3645	20.273594638266	0.203333333334
2	3700	20.467282204053	0.205000000001
2	3824	20.872282204054	0.305000000001
2	3921	21.569603548885	0.101666666667
2	4070	21.976270215553	0.305000000001
2	4155	22.353122373505	0.205000000001
2	4279	22.758122373506	0.305000000001
2	4392	23.527645265818	0.203333333334
2	4484	23.730978599152	0.203333333334
2	4664	24.671689531701	0.305000000001
2	4699	24.773356198368	0.203333333334
2	4841	25.5387637248	0.203333333334
2	4924	25.710339730938	0.101666666667
2	4930	25.718502850205	0.203333333334
2	4936	25.742097058134	0.305000000001
2	5031	26.125258405761	0.203333333334
2	5054	26.126925072428	0.205000000001
2	5398	29.127126426735	0.305000000001
2	5421	29.228793093402	0.305000000001
2	5548	29.889632712247	0.205000000001
2	5601	30.091299378914	0.203333333334
2	5849	31.091992426265	0.305000000001
2	5858	31.1003257596	0.415000000003
2	6013	31.60517593949	0.101666666667
2	6028	31.606842606157	0.306666666668
2	6225	32.32252743577	0.306666666668
2	6285	32.524194102437	0.305000000001
2	6326	34.551092664611	0.305000000001
2	6449	35.161259331278	0.305000000001
2	6471	35.162925997945	0.306666666668
2	6697	36.162800595865	0.101666666667
2	6908	36.482760222457	0.205000000001
2	7037	36.772800595867	0.406666666668
2	7069	36.887760222458	0.305000000001
2	7250	37.810678331847	0.305000000001
2	7254	37.812344998514	0.205000000001
2	7584	38.991143648415	0.203333333334
2	7602	38.997810315083	0.311666666669
2	7687	39.119995375093	0.306666666668
2	7742	39.32166204176	0.305000000001
2	7856	39.753753412684	0.203333333334
2	7931	39.957086746018	0.305000000001
2	8070	41.81440974872	0.203333333334
2	8267	42.151311804474	0.203333333334
2	8306	42.221076415388	0.406666666668
2	8432	42.415769336108	0.306666666668
2	8545	42.558111804474	0.203333333334
2	8570	42.559778471141	0.205000000001
2	8588	42.617436002775	0.305000000001
2	8866	45.258420406576	0.101666666667
2	9035	45.390177466403	0.306666666668
2	9062	45.46175373991	0.203333333334
2	9148	45.693510799737	0.305000000001
2	9349	47.862364287787	0.305000000001
2	9358	47.872391236052	0.305000000001
2	9598	48.177391236053	0.305000000001
2	9664	48.320061362223	0.203333333334
2	9677	48.326728028891	0.413333333336
2	9684	48.472630954456	0.305266666668
2	10053	49.082630954458	0.305000000001
2	10058	49.101935908068	0.203333333334
2	10085	49.110269241403	0.313333333336
2	10142	50.150116268844	0.305000000001
2	10298	50.586475662054	0.306666666668
2	10358	50.760382935513	0.305266666668
2	10515	50.991475662055	0.406666666668
2	10603	51.183716268851	0.203333333334
2	10631	51.370382935515	0.305000000001
2	10713	51.590582935519	0.203333333334
2	10736	51.592249602186	0.205000000001
2	11034	53.047357943975	0.305000000001
2	11043	53.049024610642	0.205000000001
2	11217	53.455680213406	0.101666666667
2	11233	53.457346880073	0.205000000001
2	11386	54.18114272792	0.305000000001
2	11486	54.486142727921	0.305000000001
2	11513	55.775423024748	0.203333333334
2	11547	56.016306257076	0.203333333334
2	11571	56.182311913638	0.203555555556
2	11841	56.525078169873	0.203333333334
2	11893	56.588978580306	0.203333333334
2	12021	56.931744836541	0.406666666668
2	12064	57.106126277348	0.101666666667
2	12194	57.512792944016	0.305000000001
2	12356	59.596641670147	0.205000000001
2	12427	59.798308336814	0.203333333334
2	12463	59.973865968042	0.406666666668
2	12671	60.603713256145	0.306666666668
2	12731	60.787688190266	0.406666666668
2	12847	60.907046589479	0.305000000001
2	12950	61.105407324724	0.205000000001
2	13073	61.510407324725	0.305000000001
2	13239	62.456427519915	0.101666666667
2	13253	62.458094186582	0.306666666668
2	13461	64.866222722061	0.306666666668
2	13525	65.067889388728	0.203333333334
2	13642	65.450178802414	0.406666666668
2	13733	65.756078527908	0.305000000001
2	13950	66.098330993405	0.306666666668
2	14039	66.299997660072	0.305000000001
2	14072	66.480178802414	0.406666666668
2	14255	66.830746332988	0.306666666668
2	14370	67.134079666322	0.305000000001
2	14399	67.29391213575	0.407066666668
2	14906	68.234820700254	0.305000000001
2	14910	68.236487366921	0.205000000001
3	77	6.261376690584	0.101666666667
3	265	6.681376690588	0.318333333337
3	480	7.477550634786	0.320000000004
3	591	7.679217301453	0.21666666667
3	705	7.874704001643	0.210000000002
3	771	8.074704001643	0.206666666668
3	942	8.484877108268	0.320000000004
3	964	8.571543774932	0.101666666667
3	1078	8.957951572225	0.101666666667
3	1202	9.261427924402	0.101666666667
3	1237	9.276427924405	0.320000000004
3	1527	10.431789826108	0.218333333337
3	1653	10.587011754086	0.320000000004
3	1671	10.62512315944	0.208333333335
3	1723	10.780345087418	0.208333333335
3	1745	12.748713173637	0.203333333334
3	1769	13.155402062527	0.203355555556
3	2065	13.565402062529	0.206666666668
3	2101	13.571880060594	0.208333333335
3	2178	13.783546727263	0.318333333337
3	2374	14.636299864044	0.206666666668
3	2483	14.768719603295	0.206666666668
3	2674	15.052966530714	0.21666666667
3	2689	15.083719603298	0.318333333337
3	2832	15.306197505317	0.210000000002
3	2902	15.506197505317	0.206666666668
3	2968	15.611280780852	0.101666666667
3	3090	15.819614114187	0.208333333335
3	3111	16.270025985715	0.203333333334
3	3192	16.676714874605	0.203333333334
3	3231	16.683381541273	0.210000000002
3	3421	17.459156594173	0.101666666667
3	3470	17.474156594176	0.218333333337
3	3527	19.652115537385	0.305000000001
3	3541	19.767079900917	0.203333333334
3	3588	20.070261304932	0.203333333334
3	3612	20.262282204052	0.305166666666
3	3836	20.88561553739	0.318333333337
3	3923	21.569603548885	0.101666666667
3	4057	21.87793688222	0.206666666668
3	4164	22.356455706839	0.208333333335
3	4291	22.771455706842	0.318333333337
3	4308	23.120911932484	0.203333333334
3	4391	23.527645265818	0.203333333334
3	4436	23.534311932486	0.210000000002
3	4581	24.468356198367	0.101666666667
3	4709	24.778356198369	0.208333333335
3	4864	25.543763724801	0.208333333335
3	4948	25.75543039147	0.318333333337
3	5065	26.130258405762	0.208333333335
3	5149	26.341925072431	0.21666666667
3	5350	29.025459760068	0.101666666667
3	5381	29.030459760069	0.208333333335
3	5561	29.894632712248	0.210000000002
3	5614	30.096299378915	0.208333333335
3	5776	30.891992426265	0.206666666668
3	5823	30.993659092932	0.206666666668
3	5914	31.401842606156	0.101666666667
3	6016	31.60517593949	0.101666666667
3	6092	31.908736879837	0.305000000001
3	6202	32.22252743577	0.206666666668
3	6297	32.537527435773	0.318333333337
3	6491	35.176259331281	0.320000000004
3	6567	35.377925997948	0.21666666667
3	6611	35.667660222455	0.305000000001
3	6699	36.162800595865	0.101666666667
3	6756	36.277760222456	0.3051
3	6939	36.572800595867	0.206666666668
3	7081	36.901093555794	0.318333333337
3	7094	37.403956109624	0.101666666667
3	7140	37.607344998513	0.101666666667
3	7171	37.60901166518	0.103333333334
3	7596	38.996143648416	0.208333333335
3	7609	39.006143648418	0.320000000004
3	7716	39.133328708429	0.320000000004
3	7729	39.223328708427	0.206666666668
3	7879	39.758753412685	0.208333333335
3	7943	39.970420079354	0.318333333337
3	8113	41.821076415388	0.210000000002
3	8199	42.021076415388	0.206666666668
3	8472	42.429102669444	0.320000000004
3	8580	42.564778471142	0.210000000002
3	8600	42.630769336111	0.318333333337
3	8664	42.774778471144	0.21666666667
3	8740	45.055020406576	0.101666666667
3	8865	45.258420406576	0.101666666667
3	8897	45.260087073243	0.103333333334
3	9052	45.403510799739	0.320000000004
3	9094	45.490177466403	0.101666666667
3	9283	47.669057902718	0.101666666667
3	9573	48.120061362223	0.206666666668
3	9610	48.190724569389	0.318333333337
3	9674	48.325061362224	0.208333333335
3	9796	48.690964287793	0.218333333337
3	9929	48.898602574734	0.101666666667
3	9992	48.984297621125	0.206666666668
3	10076	49.106935908069	0.208333333335
3	10317	50.59980899539	0.320000000004
3	10406	50.791475662055	0.206666666668
3	10506	50.97871626885	0.218333333337
3	10577	51.167049602181	0.101666666667
3	10747	51.59558293552	0.208333333335
3	10831	51.807249602189	0.21666666667
3	10863	52.64061349953	0.101666666667
3	10908	52.844024610641	0.101666666667
3	10939	52.845691277308	0.103333333334
3	11220	53.455680213406	0.101666666667
3	11252	53.462346880074	0.210000000002
3	11334	53.977809394586	0.101666666667
3	11498	54.499476061257	0.318333333337
3	11534	55.914922614317	0.203333333334
3	11650	56.321744836539	0.203488888888
3	11743	56.400645246975	0.218333333337
3	11906	56.593978580307	0.208333333335
3	11984	56.731744836541	0.206666666668
3	12066	57.106126277348	0.101666666667
3	12185	57.414459610683	0.206666666668
3	12219	59.188108336812	0.203333333334
3	12330	59.59497500348	0.203333333334
3	12369	59.601641670148	0.210000000002
3	12507	60.290007324722	0.305000000001
3	12688	60.617046589481	0.320000000004
3	12708	60.703713256145	0.101666666667
3	12809	60.900407324723	0.3054
3	12900	61.004354856936	0.21666666667
3	13085	61.523740658061	0.318333333337
3	13158	62.253094186581	0.101666666667
3	13242	62.456427519915	0.101666666667
3	13480	64.879556055397	0.320000000004
3	13538	65.072889388729	0.208333333335
3	13980	66.111664326741	0.320000000004
3	14010	66.201664326739	0.206666666668
3	14274	66.844079666324	0.320000000004
3	14300	66.930746332988	0.101666666667
3	14526	67.512245469087	0.218333333337
3	14632	67.828031811364	0.101666666667
3	14725	68.03148736692	0.101666666667
3	14756	68.033154033587	0.103333333334
4	92	6.264710023918	0.105000000001
4	189	6.473043357253	0.110000000002
4	372	7.269217301451	0.111666666669
4	573	7.672550634785	0.210000000002
4	690	7.871370668309	0.206666666668
4	738	7.973037334976	0.105000000001
4	840	8.276543774933	0.111666666669
4	1002	8.674877108266	0.205000000001
4	1119	9.06809459107	0.111666666669
4	1212	9.263094591069	0.103333333334
4	1309	10.010123159437	0.203333333334
4	1456	10.378678420751	0.111666666669
4	1471	10.416789826105	0.203333333334
4	1513	10.42512315944	0.211666666669
4	1716	10.778678420751	0.206666666668
4	1796	13.160202282814	0.101666666667
4	1892	13.362068729195	0.206666666668
4	1895	13.363546727259	0.101677777778
4	1970	13.463735395862	0.105000000001
4	2109	13.575213393928	0.110000000002
4	2378	14.639633197378	0.210000000002
4	2415	14.668719603295	0.106666666668
4	2559	14.875386269963	0.110000000002
4	2660	15.046299864046	0.210000000002
4	2817	15.302864171983	0.206666666668
4	2880	15.407925225296	0.101666666667
4	2905	15.507864171984	0.208333333335
4	2965	15.611280780852	0.101666666667
4	3008	15.614614114186	0.105000000001
4	3101	16.066692652381	0.203333333334
4	3121	16.473381541271	0.203355555556
4	3277	16.883381541273	0.206666666668
4	3429	17.46082326084	0.103333333334
4	3456	17.467489927508	0.211666666669
4	3708	20.470615537387	0.208333333335
4	3776	20.677282204055	0.110000000002
4	3939	21.572936882219	0.105000000001
4	4028	21.776270215553	0.105000000001
4	4163	22.356455706839	0.208333333335
4	4231	22.563122373507	0.110000000002
4	4420	23.530978599152	0.206666666668
4	4490	23.734311932486	0.206666666668
4	4529	24.163267309478	0.203333333334
4	4610	24.570022865034	0.203333333334
4	4642	24.573356198368	0.206666666668
4	4716	25.132030391466	0.101666666667
4	4732	25.335430391466	0.101733333333
4	4872	25.547097058135	0.110000000002
4	5064	26.130258405762	0.208333333335
4	5135	26.335258405763	0.210000000002
4	5315	28.927126426735	0.105000000001
4	5406	29.128793093402	0.205000000001
4	5430	29.277832712246	0.203333333334
4	5451	29.684632712246	0.203466666666
4	5607	30.094632712248	0.206666666668
4	5774	30.891992426265	0.105000000001
4	5802	30.9003257596	0.215000000003
4	5978	31.50517593949	0.205000000001
4	6027	31.606842606157	0.103333333334
4	6158	32.12252743577	0.106666666668
4	6241	32.329194102438	0.110000000002
4	6397	34.967925997946	0.111666666669
4	6553	35.37125933128	0.210000000002
4	6707	36.164467262532	0.103333333334
4	6916	36.486093555791	0.208333333335
4	6942	36.574467262534	0.208333333335
4	7022	36.692760222459	0.110000000002
4	7216	37.710678331847	0.205000000001
4	7261	37.814011665181	0.206666666668
4	7328	38.58439920397	0.101666666667
4	7384	38.787810315081	0.101666666667
4	7434	38.797810315083	0.111666666669
4	7567	38.924995375094	0.111666666669
4	7696	39.12166204176	0.105000000001
4	7745	39.346975634905	0.101666666667
4	7757	39.55042007935	0.101777777778
4	7887	39.762086746019	0.110000000002
4	8098	41.817743082054	0.206666666668
4	8174	41.94797847114	0.203333333334
4	8202	42.022743082055	0.208333333335
4	8303	42.220769336109	0.111666666669
4	8388	42.35477847114	0.203466666666
4	8454	42.422436002776	0.110000000002
4	8650	42.768111804476	0.210000000002
4	8840	45.195177466404	0.111666666669
4	8899	45.260087073243	0.103333333334
4	9070	45.465087073244	0.206666666668
4	9134	45.593510799737	0.205000000001
4	9310	47.709839139999	0.203333333334
4	9334	47.774057902719	0.206666666668
4	9451	47.982391236054	0.110000000002
4	9537	48.116728028889	0.203333333334
4	9579	48.123394695557	0.210000000002
4	9782	48.684297621125	0.211666666669
4	9907	48.882630954458	0.105000000001
4	10015	49.001935908068	0.205000000001
4	10066	49.105269241402	0.206666666668
4	10217	50.391475662055	0.111666666669
4	10409	50.793142328722	0.208333333335
4	10492	50.972049602182	0.211666666669
4	10616	51.270382935515	0.205000000001
4	10746	51.59558293552	0.208333333335
4	10817	51.800582935521	0.210000000002
4	10991	52.947357943975	0.205000000001
4	11038	53.048924657849	0.101666666667
4	11051	53.050691277309	0.206666666668
4	11100	53.252346880072	0.101755555556
4	11232	53.457346880073	0.103333333334
4	11372	54.082809394587	0.206666666668
4	11442	54.291142727922	0.110000000002
4	11604	56.21963959041	0.203333333334
4	11724	56.393978580307	0.211666666669
4	11869	56.528411503207	0.206666666668
4	11899	56.59231191364	0.206666666668
4	11987	56.733411503208	0.208333333335
4	12081	57.109459610682	0.105000000001
4	12162	57.312792944016	0.105000000001
4	12205	58.984775003478	0.203333333334
4	12241	59.391641670146	0.203533333334
4	12433	59.801641670148	0.206666666668
4	12580	60.408713256146	0.111666666669
4	12772	60.807046589479	0.205000000001
4	12872	60.997688190268	0.210000000002
4	12958	61.108740658058	0.208333333335
4	13029	61.315407324726	0.110000000002
4	13213	62.356427519915	0.205000000001
4	13252	62.458094186582	0.103333333334
4	13390	64.671222722062	0.111666666669
4	13531	65.071222722062	0.206666666668
4	13690	65.590891242893	0.203333333334
4	13818	65.903330993406	0.111666666669
4	13959	66.099997660072	0.105000000001
4	14155	66.635746332989	0.111666666669
4	14345	67.034079666322	0.205000000001
4	14512	67.505578802419	0.211666666669
4	14654	67.90684546908	0.203333333334
4	14825	68.134820700254	0.205000000001
4	14917	68.238154033588	0.206666666668
4	14969	68.311345390131	0.106666666668
4	14981	68.316445390132	0.206266587718
5	93	6.264710023918	0.105000000001
5	262	6.679710023921	0.31666666667
5	342	7.258037334973	0.203333333334
5	476	7.475883968119	0.318333333337
5	532	7.664704001641	0.203333333334
5	588	7.677550634786	0.215000000003
5	768	8.073037334976	0.205000000001
5	939	8.483210441601	0.318333333337
5	978	8.574877108266	0.105000000001
5	1221	9.264761257736	0.105000000001
5	1234	9.274761257738	0.318333333337
5	1303	9.961978420748	0.305000000001
5	1524	10.430123159441	0.21666666667
5	1611	10.572011754083	0.305000000001
5	1650	10.585345087419	0.318333333337
5	1668	10.623456492773	0.206666666668
5	1933	13.365402062529	0.210000000002
5	2062	13.563735395862	0.205000000001
5	2094	13.570213393927	0.206666666668
5	2175	13.781880060596	0.31666666667
5	2367	14.634633197377	0.205000000001
5	2426	14.689508616425	0.203333333334
5	2475	14.767052936628	0.205000000001
5	2671	15.051299864047	0.215000000003
5	2686	15.082052936631	0.31666666667
5	2692	15.096197505315	0.203355555556
5	2898	15.50453083865	0.205000000001
5	3009	15.614614114186	0.105000000001
5	3087	15.81794744752	0.206666666668
5	3226	16.681714874606	0.208333333335
5	3284	16.88504820794	0.208333333335
5	3435	17.462489927507	0.105000000001
5	3467	17.472489927509	0.21666666667
5	3709	20.470615537387	0.208333333335
5	3833	20.883948870723	0.31666666667
5	3908	21.538055706836	0.305000000001
5	3940	21.572936882219	0.105000000001
5	4054	21.876270215553	0.205000000001
5	4077	22.148122373504	0.305066666667
5	4288	22.769789040175	0.31666666667
5	4298	22.91757859915	0.203333333334
5	4318	23.324311932484	0.2034
5	4497	23.735978599153	0.208333333335
5	4596	24.471689531701	0.105000000001
5	4706	24.776689531702	0.206666666668
5	4831	25.515169516871	0.203333333334
5	4857	25.542097058134	0.206666666668
5	4945	25.753763724803	0.31666666667
5	4958	25.921925072427	0.203422222222
5	5146	26.340258405764	0.215000000003
5	5368	29.028793093402	0.105000000001
5	5379	29.030459760069	0.208333333335
5	5440	29.48116604558	0.203333333334
5	5522	29.88796604558	0.203333333334
5	5556	29.892966045581	0.208333333335
5	5765	30.890325759598	0.205000000001
5	5820	30.991992426265	0.205000000001
5	5940	31.406842606157	0.106666666668
5	6036	31.608509272824	0.105000000001
5	6194	32.220860769103	0.205000000001
5	6294	32.535860769106	0.31666666667
5	6487	35.174592664614	0.318333333337
5	6564	35.376259331281	0.215000000003
5	6721	36.167800595866	0.106666666668
5	6864	36.452527357897	0.203333333334
5	6917	36.486093555791	0.208333333335
5	6935	36.5711339292	0.205000000001
5	7078	36.899426889127	0.31666666667
5	7182	37.610678331847	0.105000000001
5	7271	37.815678331848	0.208333333335
5	7591	38.994476981749	0.206666666668
5	7606	39.004476981751	0.318333333337
5	7713	39.131662041762	0.318333333337
5	7726	39.22166204176	0.205000000001
5	7872	39.757086746018	0.206666666668
5	7940	39.968753412687	0.31666666667
5	7954	41.20432085983	0.203333333334
5	7982	41.611076415386	0.203422222222
5	8195	42.019409748721	0.205000000001
5	8468	42.427436002777	0.318333333337
5	8511	42.50934092574	0.305000000001
5	8576	42.563111804475	0.208333333335
5	8597	42.629102669444	0.31666666667
5	8661	42.773111804477	0.215000000003
5	8907	45.26175373991	0.105000000001
5	9049	45.401844133072	0.318333333337
5	9077	45.466753739911	0.208333333335
5	9108	45.493510799737	0.105000000001
5	9298	47.672391236052	0.105000000001
5	9565	48.118394695556	0.205000000001
5	9607	48.189057902722	0.31666666667
5	9671	48.323394695557	0.206666666668
5	9793	48.689297621126	0.21666666667
5	9799	48.695180352511	0.101666666667
5	9926	48.898602574734	0.101666666667
5	9972	48.903602574735	0.106666666668
5	9989	48.982630954458	0.205000000001
5	10314	50.598142328723	0.318333333337
5	10402	50.789808995388	0.205000000001
5	10503	50.977049602183	0.21666666667
5	10509	50.980382935517	0.205087418575
5	10594	51.170382935515	0.105000000001
5	10640	51.387249602185	0.203533333334
5	10828	51.805582935522	0.215000000003
5	10950	52.847357943975	0.105000000001
5	11061	53.052357943976	0.208333333335
5	11240	53.45901354674	0.105000000001
5	11248	53.460680213407	0.208333333335
5	11349	53.98114272792	0.105000000001
5	11495	54.49780939459	0.31666666667
5	11541	55.978756358082	0.203333333334
5	11683	56.385645246972	0.203333333334
5	11740	56.398978580308	0.21666666667
5	11884	56.531744836541	0.210000000002
5	11980	56.730078169874	0.205000000001
5	12082	57.109459610682	0.105000000001
5	12182	57.412792944016	0.205000000001
5	12364	59.599975003481	0.208333333335
5	12440	59.803308336815	0.208333333335
5	12685	60.615379922814	0.318333333337
5	12722	60.707046589479	0.105000000001
5	12889	61.002688190269	0.215000000003
5	12959	61.108740658058	0.208333333335
5	13082	61.522073991394	0.31666666667
5	13180	62.258094186582	0.106666666668
5	13261	62.459760853249	0.105000000001
5	13319	64.254189388726	0.305000000001
5	13438	64.864556055394	0.305000000001
5	13477	64.87788938873	0.318333333337
5	13977	66.109997660074	0.318333333337
5	14007	66.199997660072	0.205000000001
5	14270	66.842412999657	0.318333333337
5	14315	66.934079666322	0.105000000001
5	14523	67.51057880242	0.21666666667
5	14768	68.034820700254	0.105000000001
5	14927	68.239820700255	0.208333333335
6	140	6.364710023918	0.205000000001
6	229	6.573043357253	0.210000000002
6	414	7.369217301451	0.211666666669
6	432	7.461370668307	0.203333333334
6	626	7.772550634785	0.310000000002
6	660	7.868037334975	0.203333333334
6	697	7.873037334976	0.208333333335
6	878	8.376543774933	0.211666666669
6	963	8.571543774932	0.101666666667
6	1179	9.16809459107	0.211666666669
6	1247	9.363094591069	0.203333333334
6	1549	10.478678420751	0.211666666669
6	1593	10.521789826106	0.105000000001
6	1602	10.52512315944	0.311666666669
6	1717	10.778678420751	0.206666666668
6	1755	12.952046506971	0.203333333334
6	1862	13.358735395861	0.203333333334
6	1922	13.363735395862	0.208333333335
6	2035	13.46854672726	0.105000000001
6	2148	13.675213393928	0.210000000002
6	2207	14.155297381071	0.203333333334
6	2308	14.536299864044	0.106666666668
6	2323	14.562052936627	0.203422222222
6	2630	14.975386269963	0.210000000002
6	2732	15.146299864046	0.310000000002
6	2824	15.30453083865	0.208333333335
6	2862	15.40453083865	0.105000000001
6	3058	15.716280780853	0.105000000001
6	3067	15.71794744752	0.208333333335
6	3179	16.578381541272	0.105000000001
6	3278	16.883381541273	0.206666666668
6	3476	17.56082326084	0.203333333334
6	3496	17.567489927508	0.311666666669
6	3703	20.46894887072	0.206666666668
6	3806	20.777282204055	0.210000000002
6	3857	21.264536882218	0.203333333334
6	3957	21.671270215552	0.203333333334
6	3985	21.672936882219	0.205000000001
6	4158	22.354789040172	0.206666666668
6	4261	22.663122373507	0.210000000002
6	4427	23.532645265819	0.208333333335
6	4491	23.734311932486	0.206666666668
6	4588	24.470022865034	0.103333333334
6	4683	24.675022865035	0.105000000001
6	4816	25.440430391467	0.105000000001
6	4910	25.647097058135	0.210000000002
6	5058	26.128591739095	0.206666666668
6	5159	26.435258405763	0.310000000002
6	5201	28.618770871178	0.101666666667
6	5231	28.822126426734	0.101688888889
6	5349	29.025459760068	0.101666666667
6	5509	29.789632712247	0.105000000001
6	5608	30.094632712248	0.206666666668
6	5638	30.583603537375	0.101666666667
6	5683	30.786992426264	0.101666666667
6	5729	30.791992426265	0.106666666668
6	5913	31.401842606156	0.101666666667
6	6041	31.60903854688	0.203333333334
6	6061	31.706842606157	0.203333333334
6	6099	32.015860769102	0.203488888888
6	6271	32.429194102438	0.210000000002
6	6431	35.067925997946	0.211666666669
6	6587	35.47125933128	0.310000000002
6	6739	36.264467262532	0.203333333334
6	6884	36.4711339292	0.105000000001
6	6911	36.484426889124	0.206666666668
6	7055	36.792760222459	0.210000000002
6	7143	37.607344998513	0.101666666667
6	7262	37.814011665181	0.206666666668
6	7318	38.486719931675	0.203333333334
6	7338	38.609839819537	0.203333333334
6	7506	38.892810315082	0.105000000001
6	7529	38.897810315083	0.211666666669
6	7612	39.016662041759	0.203333333334
6	7657	39.024995375094	0.211666666669
6	7837	39.655420079351	0.105000000001
6	7917	39.862086746019	0.210000000002
6	8105	41.819409748721	0.208333333335
6	8151	41.919409748721	0.105000000001
6	8370	42.320769336109	0.211666666669
6	8500	42.459778471141	0.105000000001
6	8529	42.522436002776	0.210000000002
6	8674	42.868111804476	0.310000000002
6	8940	45.295177466404	0.211666666669
6	8967	45.360087073243	0.203333333334
6	9071	45.465087073244	0.206666666668
6	9093	45.490177466403	0.101666666667
6	9290	47.670724569385	0.103333333334
6	9489	48.020061362223	0.106666666668
6	9523	48.082391236054	0.210000000002
6	9592	48.167364287788	0.305000000001
6	9637	48.22172802889	0.105000000001
6	9805	48.777630954457	0.305000000001
6	9841	48.784297621125	0.311666666669
6	9928	48.898602574734	0.101666666667
6	10067	49.105269241402	0.206666666668
6	10257	50.491475662055	0.211666666669
6	10341	50.689808995388	0.105000000001
6	10555	51.072049602182	0.311666666669
6	10576	51.167049602181	0.101666666667
6	10740	51.593916268853	0.206666666668
6	10841	51.900582935521	0.310000000002
6	10911	52.844024610641	0.101666666667
6	11052	53.050691277309	0.206666666668
6	11190	53.357346880073	0.105000000001
6	11262	53.557346880073	0.203333333334
6	11341	53.979476061253	0.103333333334
6	11472	54.391142727922	0.210000000002
6	11820	56.493978580307	0.311666666669
6	11876	56.530078169874	0.208333333335
6	11900	56.59231191364	0.206666666668
6	11940	56.630078169874	0.105000000001
6	11998	56.800926277347	0.203333333334
6	12095	57.207792944015	0.203333333334
6	12123	57.209459610682	0.205000000001
6	12307	59.496641670147	0.105000000001
6	12434	59.801641670148	0.206666666668
6	12622	60.508713256146	0.211666666669
6	12707	60.703713256145	0.101666666667
6	12934	61.097688190268	0.310000000002
6	12953	61.107073991391	0.206666666668
6	13059	61.415407324726	0.210000000002
6	13157	62.253094186581	0.101666666667
6	13277	62.558094186582	0.203333333334
6	13424	64.771222722062	0.211666666669
6	13532	65.071222722062	0.206666666668
6	13647	65.451078527907	0.305000000001
6	13684	65.588108771181	0.203333333334
6	13855	65.994997660071	0.203333333334
6	13900	66.003330993406	0.211666666669
6	14203	66.735746332989	0.211666666669
6	14299	66.930746332988	0.101666666667
6	14558	67.605578802419	0.311666666669
6	14619	67.797767612351	0.203333333334
6	14728	68.03148736692	0.101666666667
6	14864	68.204678723463	0.203577777778
6	14918	68.238154033588	0.206666666668
7	141	6.364710023918	0.205000000001
7	259	6.671376690586	0.308333333335
7	468	7.467550634784	0.310000000002
7	615	7.769704001642	0.105000000001
7	646	7.77637066831	0.313820033527
7	652	7.859877108263	0.305000000001
7	724	7.969704001642	0.101666666667
7	900	8.469877108265	0.305000000001
7	935	8.474877108266	0.310000000002
7	1230	9.266427924403	0.310000000002
7	1251	9.364761257736	0.205000000001
7	1594	10.521789826106	0.308333333335
7	1644	10.577011754084	0.310000000002
7	1664	10.621789826106	0.205000000001
7	1685	10.675345087417	0.103333333334
7	1829	13.260402062528	0.105000000001
7	1956	13.460402062528	0.101666666667
7	2084	13.56854672726	0.205000000001
7	2172	13.773546727261	0.308333333335
7	2274	14.458006644122	0.101666666667
7	2288	14.531299864043	0.101666666667
7	2395	14.663719603294	0.101666666667
7	2683	15.073719603296	0.308333333335
7	2729	15.142966530712	0.306666666668
7	2758	15.201197505316	0.105000000001
7	2848	15.401197505316	0.101666666667
7	3051	15.714614114186	0.205000000001
7	3084	15.816280780853	0.205000000001
7	3219	16.678381541272	0.205000000001
7	3246	16.780048207939	0.103333333334
7	3480	17.562489927507	0.205000000001
7	3495	17.567489927508	0.311666666669
7	3663	20.365615537386	0.103333333334
7	3690	20.380788345488	0.305000000001
7	3830	20.875615537388	0.308333333335
7	3986	21.672936882219	0.205000000001
7	4014	21.772936882219	0.101666666667
7	4121	22.251455706838	0.103333333334
7	4285	22.76145570684	0.308333333335
7	4368	23.429311932485	0.105000000001
7	4453	23.630978599152	0.103333333334
7	4519	23.959933976144	0.203333333334
7	4539	24.3666895317	0.203422222222
7	4703	24.775022865035	0.205000000001
7	4850	25.540430391467	0.205000000001
7	4942	25.745430391468	0.308333333335
7	5002	26.025258405761	0.103333333334
7	5156	26.431925072429	0.306666666668
7	5191	28.522479391025	0.305000000001
7	5215	28.720437537845	0.101666666667
7	5275	28.923793093401	0.101666666667
7	5305	28.925459760068	0.103333333334
7	5549	29.889632712247	0.205000000001
7	5576	29.991299378914	0.103333333334
7	5684	30.786992426264	0.101666666667
7	5755	30.888659092931	0.101666666667
7	5779	30.893398161711	0.203333333334
7	5868	31.300175939489	0.203444444444
7	6066	31.708509272824	0.205000000001
7	6138	32.117527435769	0.101666666667
7	6291	32.527527435771	0.308333333335
7	6479	35.166259331279	0.310000000002
7	6584	35.467925997946	0.306666666668
7	6749	36.267800595866	0.206666666668
7	6837	36.38109355579	0.103333333334
7	6870	36.467800595866	0.101666666667
7	7075	36.891093555792	0.308333333335
7	7088	37.302289442957	0.101666666667
7	7101	37.505678331846	0.101722222222
7	7214	37.710678331847	0.103333333334
7	7588	38.992810315082	0.205000000001
7	7603	38.997810315083	0.311666666669
7	7677	39.118328708426	0.101666666667
7	7705	39.123328708427	0.310000000002
7	7865	39.755420079351	0.205000000001
7	7937	39.960420079352	0.308333333335
7	8038	41.716076415387	0.105000000001
7	8137	41.916076415387	0.101666666667
7	8446	42.419102669442	0.310000000002
7	8571	42.559778471141	0.205000000001
7	8594	42.620769336109	0.308333333335
7	8671	42.864778471142	0.306666666668
7	8712	44.778344133069	0.305000000001
7	8954	45.340693565151	0.305000000001
7	8979	45.36175373991	0.103333333334
7	8980	45.36175373991	0.205000000001
7	9010	45.388510799736	0.305000000001
7	9045	45.393510799737	0.310000000002
7	9169	46.957157902718	0.305000000001
7	9219	47.540362294963	0.203333333334
7	9229	47.567391236051	0.305233333332
7	9469	48.015061362222	0.101666666667
7	9604	48.180724569387	0.308333333335
7	9668	48.32172802889	0.205000000001
7	9760	48.593513685844	0.101666666667
7	9835	48.780964287791	0.308333333335
7	9851	48.796935908067	0.101755555556
7	9890	48.879297621124	0.101666666667
7	10014	49.001935908068	0.103333333334
7	10232	50.455116268845	0.305000000001
7	10308	50.589808995388	0.310000000002
7	10327	50.686475662054	0.101666666667
7	10518	51.065382935514	0.305000000001
7	10549	51.068716268848	0.308333333335
7	10684	51.490582935519	0.103333333334
7	10838	51.897249602187	0.306666666668
7	10857	52.538946832863	0.101666666667
7	10869	52.742357943974	0.101744444444
7	10989	52.947357943975	0.103333333334
7	11133	53.265842727917	0.305000000001
7	11234	53.457346880073	0.205000000001
7	11266	53.55901354674	0.205000000001
7	11292	53.876142727919	0.305300000001
7	11492	54.489476061255	0.308333333335
7	11763	56.42674483654	0.105000000001
7	11795	56.488978580306	0.103333333334
7	11825	56.495645246974	0.313333333336
7	11926	56.62674483654	0.101666666667
7	12124	57.209459610682	0.205000000001
7	12148	57.309459610682	0.101666666667
7	12357	59.596641670147	0.205000000001
7	12394	59.698308336814	0.103333333334
7	12473	59.99167992281	0.305000000001
7	12646	60.602046589478	0.305000000001
7	12681	60.607046589479	0.310000000002
7	12897	61.003740658057	0.103333333334
7	12931	61.094354856934	0.306666666668
7	13079	61.513740658059	0.308333333335
7	13096	61.744538631024	0.203333333334
7	13116	62.151427519914	0.203555555556
7	13281	62.559760853249	0.205000000001
7	13471	64.869556055395	0.310000000002
7	13494	64.967889388728	0.103333333334
7	13846	65.965178802413	0.101666666667
7	13940	66.096664326738	0.101666666667
7	13968	66.101664326739	0.310000000002
7	14021	66.218646332987	0.305000000001
7	14230	66.829079666321	0.305000000001
7	14266	66.834079666322	0.310000000002
7	14554	67.602245469085	0.308333333335
7	14600	67.726365144697	0.101666666667
7	14610	67.76476977516	0.305000000001
7	14662	67.929820700253	0.101788888889
7	14823	68.134820700254	0.103333333334
7	14949	68.30634539013	0.101666666667
8	146	6.368043357252	0.208333333335
8	232	6.576376690587	0.213333333336
8	286	6.911498479445	0.305000000001
8	417	7.372550634785	0.215000000003
8	642	7.775883968119	0.313333333336
8	746	7.974704001643	0.310000000002
8	774	8.07637066831	0.208333333335
8	881	8.379877108267	0.215000000003
8	1032	8.7782104416	0.308333333335
8	1182	9.171427924404	0.215000000003
8	1254	9.366427924403	0.206666666668
8	1275	9.656978420747	0.305000000001
8	1360	10.267011754082	0.305033333334
8	1571	10.518456492772	0.101666666667
8	1605	10.528456492774	0.315000000003
8	1731	10.882011754085	0.310000000002
8	1833	13.261868949481	0.101666666667
8	1980	13.465213393926	0.101666666667
8	2015	13.466880060593	0.103333333334
8	2033	13.46854672726	0.313144664733
8	2077	13.567068729196	0.208333333335
8	2443	14.742966530712	0.313333333336
8	2488	14.772052936629	0.210000000002
8	2633	14.978719603297	0.213333333336
8	2735	15.14963319738	0.313333333336
8	2870	15.406197505317	0.310000000002
8	2956	15.611197505318	0.311666666669
8	3038	15.712947447519	0.101666666667
8	3068	15.71794744752	0.208333333335
8	3162	16.575048207938	0.101666666667
8	3296	16.986714874607	0.310000000002
8	3483	17.564156594174	0.206666666668
8	3499	17.570823260842	0.315000000003
8	3745	20.573948870721	0.311666666669
8	3809	20.780615537389	0.213333333336
8	3993	21.676270215553	0.208333333335
8	4041	21.843055706837	0.305000000001
8	4060	21.879603548887	0.208333333335
8	4175	22.453122373505	0.305000000001
8	4200	22.459789040173	0.311666666669
8	4470	23.634311932486	0.310000000002
8	4509	23.83764526582	0.310000000002
8	4667	24.671689531701	0.101666666667
8	4690	24.676689531702	0.310000000002
8	4778	25.437097058133	0.101666666667
8	4913	25.650430391469	0.213333333336
8	5100	26.233591739096	0.311666666669
8	5162	26.438591739097	0.313333333336
8	5225	28.819646538535	0.305000000001
8	5261	28.827479391026	0.305000000001
8	5382	29.030459760069	0.208333333335
8	5424	29.232126426736	0.308333333335
8	5492	29.786299378913	0.101666666667
8	5622	30.197966045582	0.310000000002
8	5829	30.995325759599	0.208333333335
8	5843	31.003659092934	0.318333333337
8	6038	31.608509272824	0.308333333335
8	6069	31.710175939491	0.206666666668
8	6207	32.225860769104	0.210000000002
8	6274	32.432527435772	0.213333333336
8	6434	35.07125933128	0.215000000003
8	6590	35.474592664614	0.313333333336
8	6639	35.972660222456	0.305000000001
8	6750	36.267800595866	0.206666666668
8	6953	36.582760222457	0.305000000001
8	6978	36.589426889125	0.311666666669
8	6996	36.677800595868	0.311666666669
8	7263	37.814011665181	0.308333333335
8	7280	37.917344998515	0.310000000002
8	7306	38.406506486203	0.203333333334
8	7449	38.813328708425	0.203488888888
8	7490	38.889476981748	0.101666666667
8	7532	38.901143648417	0.215000000003
8	7732	39.224995375094	0.208333333335
8	7799	39.652086746017	0.101666666667
8	7920	39.865420079353	0.213333333336
8	8128	41.905658224996	0.203333333334
8	8159	41.921076415388	0.310000000002
8	8261	42.126076415389	0.311666666669
8	8273	42.204340925739	0.305000000001
8	8329	42.312436002774	0.203333333334
8	8375	42.324102669443	0.215000000003
8	8483	42.456445137807	0.101666666667
8	8677	42.87144513781	0.313333333336
8	8698	44.473344133068	0.305000000001
8	8746	45.083510799735	0.305166666666
8	8990	45.363420406577	0.206666666668
8	9121	45.568420406578	0.310000000002
8	9151	45.696844133071	0.308333333335
8	9183	47.262157902719	0.305000000001
8	9357	47.872391236052	0.305000000001
8	9382	47.877391236053	0.310000000002
8	9621	48.218394695556	0.101666666667
8	9652	48.226728028891	0.313333333336
8	9845	48.787630954459	0.315000000003
8	9995	48.985964287792	0.208333333335
8	10068	49.105269241402	0.308333333335
8	10088	49.208602574736	0.310000000002
8	10106	49.669608995386	0.305000000001
8	10156	50.279808995386	0.305199999999
8	10470	50.896475662056	0.311666666669
8	10558	51.075382935516	0.315000000003
8	10634	51.373716268849	0.308333333335
8	10782	51.698916268854	0.311666666669
8	10844	51.903916268855	0.313333333336
8	11053	53.050691277309	0.308333333335
8	11074	53.077627110028	0.203333333334
8	11086	53.154024610643	0.310000000002
8	11150	53.354013546739	0.101666666667
8	11269	53.560680213407	0.206666666668
8	11275	53.570842727918	0.305000000001
8	11385	54.18114272792	0.305000000001
8	11410	54.186142727921	0.310000000002
8	11831	56.497311913641	0.315000000003
8	11948	56.631744836541	0.310000000002
8	11963	56.695645246974	0.310000000002
8	12011	56.836744836542	0.311666666669
8	12131	57.212792944016	0.208333333335
8	12188	57.41612627735	0.208333333335
8	12290	59.493308336813	0.101666666667
8	12377	59.686679922809	0.305000000001
8	12457	59.904975003482	0.310000000002
8	12513	60.297046589477	0.305366666667
8	12853	60.910379922813	0.308333333335
8	12937	61.101021523602	0.313333333336
8	12998	61.212073991392	0.311666666669
8	13062	61.41874065806	0.213333333336
8	13263	62.459760853249	0.308333333335
8	13284	62.561427519916	0.206666666668
8	13427	64.774556055396	0.215000000003
8	13565	65.174556055396	0.310000000002
8	13904	66.00666432674	0.215000000003
8	14013	66.203330993406	0.208333333335
8	14206	66.739079666323	0.215000000003
8	14373	67.137412999656	0.308333333335
8	14561	67.608912135753	0.315000000003
8	14706	68.001100945685	0.203333333334
8	14919	68.238154033588	0.308333333335
9	168	6.464710023918	0.305000000001
9	256	6.669710023919	0.306666666668
9	464	7.465883968117	0.308333333335
9	685	7.869704001642	0.205000000001
9	711	7.87637066831	0.413820033527
9	723	7.969704001642	0.101666666667
9	930	8.473210441599	0.308333333335
9	962	8.571543774932	0.101666666667
9	1095	9.058412873551	0.305000000001
9	1223	9.264761257736	0.308333333335
9	1264	9.464761257736	0.305000000001
9	1639	10.575345087417	0.308333333335
9	1659	10.620123159439	0.203333333334
9	1665	10.621789826106	0.408333333335
9	1711	10.775345087417	0.203333333334
9	1887	13.360402062528	0.205000000001
9	1955	13.460402062528	0.101666666667
9	2073	13.566880060593	0.203333333334
9	2124	13.616210975152	0.406666666668
9	2169	13.771880060594	0.306666666668
9	2229	14.356339977455	0.101666666667
9	2241	14.429633197376	0.406755555556
9	2394	14.663719603294	0.101666666667
9	2574	14.892841949759	0.203333333334
9	2680	15.072052936629	0.306666666668
9	2783	15.242966530712	0.406666666668
9	2788	15.299530838649	0.203333333334
9	2812	15.301197505316	0.205000000001
9	3079	15.814614114186	0.305000000001
9	3081	15.814614114186	0.203333333334
9	3193	16.676714874605	0.203333333334
9	3272	16.880048207939	0.203333333334
9	3505	17.662489927507	0.305000000001
9	3508	17.667489927508	0.411666666669
9	3577	19.970413234251	0.203333333334
9	3696	20.465615537386	0.203333333334
9	3827	20.873948870721	0.306666666668
9	4011	21.772936882219	0.305000000001
9	4013	21.772936882219	0.101666666667
9	4151	22.351455706838	0.203333333334
9	4282	22.759789040173	0.306666666668
9	4415	23.529311932485	0.205000000001
9	4485	23.730978599152	0.203333333334
9	4580	24.468356198367	0.101666666667
9	4700	24.773356198368	0.203333333334
9	4842	25.5387637248	0.203333333334
9	4939	25.743763724801	0.306666666668
9	5032	26.125258405761	0.203333333334
9	5168	26.531925072429	0.406666666668
9	5277	28.923793093401	0.101666666667
9	5348	29.025459760068	0.101666666667
9	5393	29.124646538536	0.305000000001
9	5523	29.88796604558	0.203333333334
9	5602	30.091299378914	0.203333333334
9	5632	30.481936870708	0.101666666667
9	5644	30.685325759597	0.101722222222
9	5754	30.888659092931	0.101666666667
9	5912	31.401842606156	0.101666666667
9	6082	31.808509272824	0.305000000001
9	6137	32.117527435769	0.101666666667
9	6288	32.525860769104	0.306666666668
9	6475	35.164592664612	0.308333333335
9	6604	35.567925997946	0.406666666668
9	6617	35.756033929198	0.305000000001
9	6730	36.249194024563	0.203333333334
9	6793	36.366133929199	0.305000000001
9	6816	36.367800595866	0.306666666668
9	6904	36.48109355579	0.203333333334
9	7072	36.889426889125	0.306666666668
9	7142	37.607344998513	0.101666666667
9	7251	37.810678331847	0.203333333334
9	7585	38.991143648415	0.203333333334
9	7597	38.996143648416	0.310000000002
9	7676	39.118328708426	0.101666666667
9	7698	39.12166204176	0.308333333335
9	7857	39.753753412684	0.203333333334
9	7934	39.958753412685	0.306666666668
9	7964	41.407654193164	0.203333333334
9	8069	41.81440974872	0.203333333334
9	8093	41.816076415387	0.205000000001
9	8439	42.417436002775	0.308333333335
9	8546	42.558111804474	0.203333333334
9	8591	42.619102669442	0.306666666668
9	8683	42.964778471142	0.406666666668
9	9040	45.39184413307	0.308333333335
9	9061	45.46175373991	0.305000000001
9	9065	45.463420406577	0.205000000001
9	9092	45.490177466403	0.101666666667
9	9213	47.506505806665	0.203333333334
9	9282	47.669057902718	0.101666666667
9	9394	47.913394695555	0.203555555556
9	9601	48.17905790272	0.306666666668
9	9665	48.320061362223	0.203333333334
9	9889	48.879297621124	0.101666666667
9	9900	48.880964287791	0.408333333335
9	9927	48.898602574734	0.101666666667
9	10059	49.101935908068	0.203333333334
9	10128	49.974608995387	0.305000000001
9	10275	50.584808995387	0.305000000001
9	10303	50.588142328721	0.308333333335
9	10575	51.167049602181	0.101666666667
9	10587	51.168716268848	0.408333333335
9	10714	51.590582935519	0.203333333334
9	10850	51.997249602187	0.406666666668
9	10910	52.844024610641	0.101666666667
9	11035	53.047357943975	0.203333333334
9	11216	53.455680213406	0.203333333334
9	11281	53.65901354674	0.305000000001
9	11333	53.977809394586	0.101666666667
9	11489	54.487809394588	0.306666666668
9	11564	56.118255947651	0.203333333334
9	11840	56.525078169873	0.203333333334
9	11864	56.52674483654	0.205000000001
9	11894	56.588978580306	0.203333333334
9	11913	56.595645246974	0.413333333336
9	12145	57.309459610682	0.305000000001
9	12147	57.309459610682	0.101666666667
9	12318	59.567199301374	0.406666666668
9	12331	59.59497500348	0.203333333334
9	12428	59.798308336814	0.203333333334
9	12546	60.381021523598	0.407155555556
9	12676	60.605379922812	0.308333333335
9	12706	60.703713256145	0.101666666667
9	12946	61.103740658057	0.203333333334
9	12970	61.194354856934	0.406666666668
9	13076	61.512073991392	0.306666666668
9	13156	62.253094186581	0.101666666667
9	13290	62.659760853249	0.305000000001
9	13466	64.867889388728	0.308333333335
9	13526	65.067889388728	0.203333333334
9	13630	65.387557909559	0.203333333334
9	13784	65.856845469082	0.406666666668
9	13925	66.06684546908	0.101666666667
9	13939	66.096664326738	0.101666666667
9	13961	66.099997660072	0.308333333335
9	14260	66.832412999655	0.308333333335
9	14281	66.886845469082	0.406666666668
9	14298	66.930746332988	0.101666666667
9	14588	67.700578802418	0.406666666668
9	14591	67.702245469085	0.408333333335
9	14727	68.03148736692	0.101666666667
9	14796	68.110178802414	0.203333333334
9	14907	68.234820700254	0.203333333334
9	14948	68.30634539013	0.101666666667

