version 2
run General-37-20190529-16:33:07-20560
attr configname General
attr datetime 20190529-16:33:07
attr experiment General
attr inifile omnetpp.ini
attr iterationvars ""
attr iterationvarsf ""
attr measurement ""
attr network networks.Net5
attr processid 20560
attr repetition 37
attr replication #37
attr resultdir results
attr runnumber 37
attr seedset 37
param **.appType "\"App\""
param **.app.packetLength "1500 bytes"
param **.app.totalNodes 3
param **.destAddresses "\"0\""
param **.sendIaTime "uniform(5s, 10s)"
param **.sendIaTimeEvil 10ms

vector 0 Net5.rte[2].app endToEndDelay:vector ETV
attr interpolationmode none
attr title "end-to-end delay of arrived packets, vector"
attr unit s
vector 1 Net5.rte[1].app endToEndDelay:vector ETV
attr interpolationmode none
attr title "end-to-end delay of arrived packets, vector"
attr unit s
vector 2 Net5.rte[0].app endToEndDelay:vector ETV
attr interpolationmode none
attr title "end-to-end delay of arrived packets, vector"
attr unit s
0	7	5.797796888144	0.101666666667
0	19	6.001130221478	0.101666666667
0	49	6.204463554812	0.101666666667
0	62	7.523824199302	0.101666666667
0	82	7.727168643747	0.101666666667
0	92	7.728835310414	0.103333333334
0	132	10.12914969323	0.101666666667
0	147	10.230816359897	0.101666666667
0	181	12.651191545718	0.101666666667
0	196	12.752858212385	0.101666666667
0	209	13.04101198722	0.101666666667
0	229	13.244367542776	0.101666666667
0	239	13.246034209443	0.103333333334
0	252	17.972928024462	0.101666666667
0	264	18.176294691129	0.1017
0	294	18.379628024463	0.101666666667
0	307	20.933316599544	0.101666666667
0	327	21.136694377322	0.101666666667
0	337	21.138361043989	0.103333333334
0	360	21.309686342355	0.101666666667
0	392	21.513064120133	0.101711111111
1	13	5.899463554811	0.101666666667
1	33	6.102796888145	0.101666666667
1	43	6.104463554812	0.103333333334
1	56	7.422157532635	0.101666666667
1	68	7.62550197708	0.101677777778
1	98	7.828835310414	0.101666666667
1	105	9.824149693229	0.101666666667
1	117	10.027483026563	0.101666666667
1	146	10.230816359897	0.101666666667
1	160	12.447824879051	0.101666666667
1	180	12.651191545718	0.101666666667
1	190	12.652858212385	0.103333333334
1	230	13.244367542776	0.101666666667
1	245	13.346034209443	0.101666666667
1	279	18.277961357796	0.101666666667
1	293	18.379628024463	0.101666666667
1	328	21.136694377322	0.101666666667
1	350	21.238361043989	0.101666666667
1	376	21.411353009022	0.101666666667
1	416	21.6147307868	0.101666666667
1	420	21.616397453467	0.103333333334
1	453	21.821353009022	0.101666666667
2	34	6.102796888145	0.101666666667
2	48	6.204463554812	0.101666666667
2	83	7.727168643747	0.101666666667
2	97	7.828835310414	0.101666666667
2	111	9.925816359896	0.101666666667
2	131	10.12914969323	0.101666666667
2	141	10.130816359897	0.103333333334
2	154	12.346158212384	0.101666666667
2	166	12.549524879051	0.1017
2	195	12.752858212385	0.101666666667
2	203	12.939345320553	0.101666666667
2	215	13.142700876109	0.101688888889
2	244	13.346034209443	0.101666666667
2	258	18.074594691129	0.101666666667
2	278	18.277961357796	0.101666666667
2	288	18.279628024463	0.103333333334
2	301	20.831649932877	0.101666666667
2	313	21.035027710655	0.101711111111
2	349	21.238361043989	0.101666666667
2	417	21.6147307868	0.101666666667
2	437	21.719686342355	0.101666666667
2	469	21.923064120133	0.101711111111

