version 2
run General-41-20190529-16:33:08-9424
attr configname General
attr datetime 20190529-16:33:08
attr experiment General
attr inifile omnetpp.ini
attr iterationvars ""
attr iterationvarsf ""
attr measurement ""
attr network networks.Net5
attr processid 9424
attr repetition 41
attr replication #41
attr resultdir results
attr runnumber 41
attr seedset 41
param **.appType "\"App\""
param **.app.packetLength "1500 bytes"
param **.app.totalNodes 3
param **.destAddresses "\"0\""
param **.sendIaTime "uniform(5s, 10s)"
param **.sendIaTimeEvil 10ms

vector 0 Net5.rte[0].app endToEndDelay:vector ETV
attr interpolationmode none
attr title "end-to-end delay of arrived packets, vector"
attr unit s
vector 1 Net5.rte[2].app endToEndDelay:vector ETV
attr interpolationmode none
attr title "end-to-end delay of arrived packets, vector"
attr unit s
vector 2 Net5.rte[1].app endToEndDelay:vector ETV
attr interpolationmode none
attr title "end-to-end delay of arrived packets, vector"
attr unit s
0	7	5.332145772043	0.101666666667
0	19	5.535479105377	0.101666666667
0	48	5.738812438711	0.101666666667
0	62	6.457951426705	0.101666666667
0	82	6.66129587115	0.101666666667
0	92	6.662962537817	0.103333333334
0	132	8.809541410434	0.101666666667
0	146	8.911208077101	0.101666666667
0	154	11.108942486679	0.101666666667
0	166	11.312298042235	0.101688888889
0	195	11.515631375569	0.101666666667
0	209	12.040069934878	0.101666666667
0	229	12.243436601545	0.101666666667
0	239	12.245103268212	0.103333333334
0	252	17.443852361392	0.101666666667
0	264	17.647207916948	0.101688888889
0	293	17.850541250282	0.101666666667
0	330	19.858232161397	0.101666666667
0	344	21.20976554273	0.101666666667
0	364	21.413154431619	0.101666666667
0	374	21.414821098286	0.103333333334
0	454	24.410196075018	0.101666666667
0	474	24.515151630573	0.101666666667
0	506	24.718529408351	0.101711111111
1	13	5.43381243871	0.101666666667
1	33	5.637145772044	0.101666666667
1	43	5.638812438711	0.103333333334
1	83	6.66129587115	0.101666666667
1	98	6.762962537817	0.101666666667
1	105	8.504530299322	0.101666666667
1	117	8.707874743767	0.101677777778
1	147	8.911208077101	0.101666666667
1	160	11.210609153346	0.101666666667
1	180	11.413964708902	0.101666666667
1	190	11.415631375569	0.103333333334
1	203	11.938403268211	0.101666666667
1	215	12.141769934878	0.1017
1	245	12.345103268212	0.101666666667
1	279	17.748874583615	0.101666666667
1	294	17.850541250282	0.101666666667
1	307	19.553187716952	0.101666666667
1	319	19.75656549473	0.101666666667
1	338	21.108098876063	0.101666666667
1	350	21.311487764952	0.101722222222
1	380	21.514821098286	0.101666666667
1	397	24.105151630573	0.101666666667
1	429	24.308529408351	0.101711111111
2	34	5.637145772044	0.101666666667
2	49	5.738812438711	0.101666666667
2	56	6.356284760038	0.101666666667
2	68	6.559629204483	0.101677777778
2	97	6.762962537817	0.101666666667
2	111	8.606196965989	0.101666666667
2	131	8.809541410434	0.101666666667
2	141	8.811208077101	0.103333333334
2	181	11.413964708902	0.101666666667
2	196	11.515631375569	0.101666666667
2	230	12.243436601545	0.101666666667
2	244	12.345103268212	0.101666666667
2	258	17.545519028059	0.101666666667
2	278	17.748874583615	0.101666666667
2	288	17.750541250282	0.103333333334
2	301	19.451521050285	0.101666666667
2	313	19.654898828063	0.101711111111
2	331	19.858232161397	0.101666666667
2	365	21.413154431619	0.101666666667
2	379	21.514821098286	0.101666666667
2	413	24.20681829724	0.101666666667
2	453	24.410196075018	0.101666666667
2	457	24.411862741685	0.103333333334
2	490	24.61681829724	0.101666666667

