version 2
run General-20-20190529-16:33:00-15992
attr configname General
attr datetime 20190529-16:33:00
attr experiment General
attr inifile omnetpp.ini
attr iterationvars ""
attr iterationvarsf ""
attr measurement ""
attr network networks.Net5
attr processid 15992
attr repetition 20
attr replication #20
attr resultdir results
attr runnumber 20
attr seedset 20
param **.appType "\"App\""
param **.app.packetLength "1500 bytes"
param **.app.totalNodes 3
param **.destAddresses "\"0\""
param **.sendIaTime "uniform(5s, 10s)"
param **.sendIaTimeEvil 10ms

vector 0 Net5.rte[2].app endToEndDelay:vector ETV
attr interpolationmode none
attr title "end-to-end delay of arrived packets, vector"
attr unit s
vector 1 Net5.rte[0].app endToEndDelay:vector ETV
attr interpolationmode none
attr title "end-to-end delay of arrived packets, vector"
attr unit s
vector 2 Net5.rte[1].app endToEndDelay:vector ETV
attr interpolationmode none
attr title "end-to-end delay of arrived packets, vector"
attr unit s
0	7	8.042320642487	0.101666666667
0	19	8.245653975821	0.101666666667
0	49	8.448987309155	0.101666666667
0	78	9.691901954789	0.101666666667
0	96	9.843725190431	0.101666666667
0	111	9.945391857098	0.101666666667
0	145	16.806130746246	0.101666666667
0	160	16.907797412913	0.101666666667
0	177	17.903053473781	0.101666666667
0	183	17.9816592815	0.101666666667
0	206	18.185003725945	0.101666666667
0	216	18.186670392612	0.103333333334
0	229	23.486522156379	0.101666666667
0	241	23.689877711935	0.101688888889
0	271	23.893211045269	0.101666666667
0	308	25.500849282735	0.101666666667
0	321	27.233297458584	0.101666666667
0	341	27.436664125251	0.101666666667
0	351	27.438330791918	0.103333333334
0	374	32.774649815035	0.101666666667
0	406	32.978027592813	0.101711111111
1	13	8.143987309154	0.101666666667
1	33	8.347320642488	0.101666666667
1	43	8.348987309155	0.103333333334
1	60	9.53872519043	0.101666666667
1	81	9.742058523764	0.101666666667
1	110	9.945391857098	0.101666666667
1	124	16.60277519069	0.101666666667
1	144	16.806130746246	0.101666666667
1	154	16.807797412913	0.103333333334
1	171	17.879992614833	0.101666666667
1	192	18.083337059278	0.101677777778
1	221	18.286670392612	0.101666666667
1	256	23.791544378602	0.101666666667
1	270	23.893211045269	0.101666666667
1	284	25.19580483829	0.101666666667
1	296	25.399182616068	0.101666666667
1	315	27.131630791917	0.101666666667
1	327	27.334997458584	0.1017
1	356	27.538330791918	0.101666666667
1	431	33.07969425948	0.101666666667
1	451	33.184649815035	0.101666666667
1	483	33.388027592813	0.101711111111
2	34	8.347320642488	0.101666666667
2	48	8.448987309155	0.101666666667
2	66	9.590235288122	0.101666666667
2	72	9.640391857097	0.101666666667
2	95	9.843725190431	0.101666666667
2	105	9.845391857098	0.103333333334
2	118	16.501108524023	0.101666666667
2	130	16.704464079579	0.101688888889
2	159	16.907797412913	0.101666666667
2	189	18.004720140448	0.101666666667
2	207	18.185003725945	0.101666666667
2	222	18.286670392612	0.101666666667
2	235	23.588188823046	0.101666666667
2	255	23.791544378602	0.101666666667
2	265	23.793211045269	0.103333333334
2	278	25.094138171623	0.101666666667
2	290	25.297515949401	0.101711111111
2	307	25.500849282735	0.101666666667
2	342	27.436664125251	0.101666666667
2	357	27.538330791918	0.101666666667
2	390	32.876316481702	0.101666666667
2	430	33.07969425948	0.101666666667
2	434	33.081360926147	0.103333333334
2	467	33.286316481702	0.101666666667

