version 2
run General-32-20190529-16:33:05-12684
attr configname General
attr datetime 20190529-16:33:05
attr experiment General
attr inifile omnetpp.ini
attr iterationvars ""
attr iterationvarsf ""
attr measurement ""
attr network networks.Net5
attr processid 12684
attr repetition 32
attr replication #32
attr resultdir results
attr runnumber 32
attr seedset 32
param **.appType "\"App\""
param **.app.packetLength "1500 bytes"
param **.app.totalNodes 3
param **.destAddresses "\"0\""
param **.sendIaTime "uniform(5s, 10s)"
param **.sendIaTimeEvil 10ms

vector 0 Net5.rte[0].app endToEndDelay:vector ETV
attr interpolationmode none
attr title "end-to-end delay of arrived packets, vector"
attr unit s
vector 1 Net5.rte[1].app endToEndDelay:vector ETV
attr interpolationmode none
attr title "end-to-end delay of arrived packets, vector"
attr unit s
vector 2 Net5.rte[2].app endToEndDelay:vector ETV
attr interpolationmode none
attr title "end-to-end delay of arrived packets, vector"
attr unit s
0	7	5.399949220807	0.101666666667
0	19	5.603282554141	0.101666666667
0	48	5.806615887475	0.101666666667
0	56	6.965222431679	0.101666666667
0	68	7.168555765013	0.101666666667
0	97	7.371889098347	0.101666666667
0	111	9.497779694352	0.101666666667
0	131	9.701135249908	0.101666666667
0	141	9.702801916575	0.103333333334
0	154	12.051889489737	0.101666666667
0	166	12.255245045293	0.101688888889
0	195	12.458578378627	0.101666666667
0	232	16.030599089339	0.101666666667
0	246	19.140220047407	0.101666666667
0	266	19.343597825185	0.101666666667
0	276	19.345264491852	0.103333333334
0	296	20.81788127274	0.101666666667
0	309	20.88179742648	0.101666666667
0	341	21.021247939407	0.1017
0	402	21.224581272741	0.101666666667
0	471	21.606841870925	0.101666666667
0	491	21.71179742648	0.101666666667
0	523	21.915175204258	0.101711111111
1	13	5.501615887474	0.101666666667
1	33	5.704949220808	0.101666666667
1	43	5.706615887475	0.103333333334
1	83	7.27022243168	0.101666666667
1	98	7.371889098347	0.101666666667
1	105	9.396113027685	0.101666666667
1	117	9.599468583241	0.101688888889
1	146	9.802801916575	0.101666666667
1	160	12.153556156404	0.101666666667
1	180	12.35691171196	0.101666666667
1	190	12.358578378627	0.103333333334
1	203	15.62392131156	0.101666666667
1	215	15.827265756005	0.101677777778
1	233	16.030599089339	0.101666666667
1	267	19.343597825185	0.101666666667
1	281	19.445264491852	0.101666666667
1	331	20.983464093147	0.101666666667
1	372	21.122914606074	0.101666666667
1	391	21.193464093147	0.101666666667
1	403	21.224581272741	0.101666666667
1	430	21.403464093147	0.101666666667
1	470	21.606841870925	0.101666666667
1	474	21.608508537592	0.103333333334
1	507	21.813464093147	0.101666666667
2	34	5.704949220808	0.101666666667
2	49	5.806615887475	0.101666666667
2	62	7.066889098346	0.101666666667
2	82	7.27022243168	0.101666666667
2	92	7.271889098347	0.103333333334
2	132	9.701135249908	0.101666666667
2	147	9.802801916575	0.101666666667
2	181	12.35691171196	0.101666666667
2	196	12.458578378627	0.101666666667
2	209	15.725587978227	0.101666666667
2	221	15.928932422672	0.101666666667
2	240	19.03855338074	0.101666666667
2	252	19.241931158518	0.101711111111
2	282	19.445264491852	0.101666666667
2	318	20.919547939407	0.101666666667
2	360	21.09179742648	0.101666666667
2	371	21.122914606074	0.101666666667
2	381	21.124581272741	0.103333333334
2	414	21.30179742648	0.101666666667
2	446	21.505175204258	0.101711111111

