version 2
run General-31-20190610-18:04:00-21808
attr configname General
attr datetime 20190610-18:04:00
attr experiment General
attr inifile omnetpp.ini
attr iterationvars ""
attr iterationvarsf ""
attr measurement ""
attr network networks.Net5
attr processid 21808
attr repetition 31
attr replication #31
attr resultdir results
attr runnumber 31
attr seedset 31
param **.appType "\"App\""
param **.app.packetLength "1500 bytes"
param **.app.totalNodes 10
param **.destAddresses "\"0\""
param **.sendIaTime "uniform(5s, 10s)"
param **.sendIaTimeEvil 10ms

vector 0 Net5.rte[6].app endToEndDelay:vector ETV
attr interpolationmode none
attr title "end-to-end delay of arrived packets, vector"
attr unit s
vector 1 Net5.rte[1].app endToEndDelay:vector ETV
attr interpolationmode none
attr title "end-to-end delay of arrived packets, vector"
attr unit s
vector 2 Net5.rte[5].app endToEndDelay:vector ETV
attr interpolationmode none
attr title "end-to-end delay of arrived packets, vector"
attr unit s
vector 3 Net5.rte[9].app endToEndDelay:vector ETV
attr interpolationmode none
attr title "end-to-end delay of arrived packets, vector"
attr unit s
vector 4 Net5.rte[3].app endToEndDelay:vector ETV
attr interpolationmode none
attr title "end-to-end delay of arrived packets, vector"
attr unit s
vector 5 Net5.rte[4].app endToEndDelay:vector ETV
attr interpolationmode none
attr title "end-to-end delay of arrived packets, vector"
attr unit s
vector 6 Net5.rte[7].app endToEndDelay:vector ETV
attr interpolationmode none
attr title "end-to-end delay of arrived packets, vector"
attr unit s
vector 7 Net5.rte[0].app endToEndDelay:vector ETV
attr interpolationmode none
attr title "end-to-end delay of arrived packets, vector"
attr unit s
vector 8 Net5.rte[2].app endToEndDelay:vector ETV
attr interpolationmode none
attr title "end-to-end delay of arrived packets, vector"
attr unit s
vector 9 Net5.rte[8].app endToEndDelay:vector ETV
attr interpolationmode none
attr title "end-to-end delay of arrived packets, vector"
attr unit s
0	15	5.44995800133	0.305000000001
0	47	6.059958001332	0.305000000001
0	336	6.676624668002	0.311666666669
0	395	6.814998669284	0.203333333334
0	508	6.960827329275	0.310000000002
0	656	7.164160662609	0.310000000002
0	662	7.221665335952	0.203333333334
0	802	7.337955626446	0.308333333335
0	886	7.44128895978	0.310000000002
0	958	7.631665335954	0.206666666668
0	1078	7.963602461517	0.313333333336
0	1217	8.370269128185	0.313333333336
0	1468	8.972179030732	0.101666666667
0	1499	8.980512364067	0.313333333336
0	1543	9.052116731819	0.210000000002
0	1643	9.258783398487	0.213333333336
0	1826	9.771586862871	0.310000000002
0	1854	9.873253529538	0.208333333335
0	2076	10.407205616995	0.311666666669
0	2092	10.505538950328	0.308333333335
0	2099	10.544350021651	0.305000000001
0	2213	11.154416688319	0.305000000001
0	2246	11.162750021654	0.313333333336
0	2350	11.792825900551	0.305000000001
0	2386	12.402892567219	0.305066666667
0	2419	12.457387247555	0.203333333334
0	2604	12.864076136445	0.203355555556
0	2703	13.017892567222	0.310000000002
0	2869	13.274076136447	0.206666666668
0	2987	13.575361989178	0.311666666669
0	3049	13.780361989179	0.313333333336
0	3220	15.310668974316	0.101666666667
0	3251	15.319002307651	0.313333333336
0	3477	17.125517785788	0.311666666669
0	3551	17.332184452456	0.213333333336
0	3683	17.586823347378	0.206666666668
0	3748	17.891823347379	0.308333333335
0	3847	20.157578729393	0.101666666667
0	4015	20.364245396061	0.206666666668
0	4027	20.416709255792	0.305000000001
0	4245	20.669776571304	0.308333333335
0	4339	20.758522483535	0.208333333335
0	4355	20.77591206273	0.311666666669
0	4489	21.026875922459	0.305000000001
0	4518	21.033542589127	0.311666666669
0	4529	21.063522483536	0.310000000002
0	4750	21.541486930454	0.206666666668
0	4840	21.749820263789	0.313333333336
0	4924	22.173972487818	0.101666666667
0	5131	22.585639154487	0.310000000002
0	5186	22.741634173732	0.310000000002
0	5251	22.949967507067	0.213333333336
0	5281	23.061714396679	0.101666666667
0	5301	23.265092174457	0.101711111111
0	5403	23.387095463762	0.305000000001
0	5417	23.468425507791	0.101666666667
0	5522	23.997262130429	0.305166666666
0	5725	24.610595463765	0.308333333335
0	5928	26.299557641768	0.308333333335
0	5960	26.402890975102	0.310000000002
0	5966	26.406482116285	0.101666666667
0	6048	26.609904338508	0.101666666667
0	6079	26.611571005175	0.103333333334
0	6228	26.757984949523	0.208333333335
0	6329	26.961318282857	0.208333333335
0	6350	29.089552246799	0.305000000001
0	6372	29.307663724026	0.203333333334
0	6399	29.699785580132	0.305233333332
0	6753	30.257388464709	0.101666666667
0	6796	30.269055131378	0.215000000003
0	6818	30.316452246802	0.311666666669
0	7033	30.667185023049	0.308333333335
0	7060	30.770518356383	0.310000000002
0	7196	31.504188464717	0.213333333336
0	7371	33.236122640042	0.206666666668
0	7453	33.541122640043	0.308333333335
0	7459	33.561725454337	0.203333333334
0	7540	33.968614343227	0.203333333334
0	7572	33.973614343228	0.208333333335
0	7954	36.134785727028	0.206666666668
0	8152	36.471794399429	0.315000000003
0	8169	36.547819060358	0.305000000001
0	8248	36.675127732763	0.213333333336
0	8358	37.15811906036	0.305300000001
1	29	5.754958001331	0.305000000001
1	166	6.364958001333	0.305000000001
1	194	6.368291334667	0.308333333335
1	407	6.836935794845	0.406666666668
1	439	6.855827329274	0.205000000001
1	566	7.057493995941	0.203333333334
1	598	7.131288959778	0.101666666667
1	783	7.334622293112	0.203333333334
1	927	7.529998669287	0.308333333335
1	964	7.650269128181	0.406666666668
1	997	7.729998669287	0.305000000001
1	1167	8.260512364063	0.203333333334
1	1229	8.463602461517	0.406666666668
1	1252	8.667179030731	0.203333333334
1	1424	8.943783398484	0.101666666667
1	1563	9.073845697399	0.203333333334
1	1658	9.352116731819	0.306666666668
1	1772	9.66658686287	0.205000000001
1	1803	9.76658686287	0.101666666667
1	1860	9.892194505881	0.101666666667
1	1883	10.095538950326	0.101677777778
1	1984	10.23935002165	0.305000000001
1	2000	10.29887228366	0.101666666667
1	2113	10.849416688318	0.305066666667
1	2326	11.461083354987	0.306666666668
1	2539	12.711225900554	0.308333333335
1	2640	12.911225900554	0.203333333334
1	2808	13.17240946978	0.308333333335
1	2908	13.37240946978	0.305000000001
1	2919	13.467028655843	0.203333333334
1	3055	13.873695322511	0.406666666668
1	3066	14.598980085425	0.203333333334
1	3086	15.005668974315	0.203355555556
1	3260	15.412335640983	0.203333333334
1	3424	17.017184452453	0.203333333334
1	3598	17.425517785788	0.306666666668
1	3699	17.685156680711	0.101666666667
1	3711	17.686823347378	0.306666666668
1	3923	20.25924539606	0.203333333334
1	3930	20.259709904636	0.101666666667
1	4037	20.462578729394	0.305000000001
1	4049	20.464245396061	0.102802158092
1	4079	20.465912062728	0.104468824759
1	4201	20.651855816867	0.101666666667
1	4442	20.925209255792	0.203333333334
1	4469	20.956855816868	0.203333333334
1	4614	21.333542589127	0.306666666668
1	4790	21.639820263787	0.305000000001
1	4856	21.843153597121	0.406666666668
1	4959	22.275639154485	0.203333333334
1	5075	22.478972487819	0.203333333334
1	5103	22.533300840397	0.101666666667
1	5269	23.043300840399	0.306666666668
1	5477	23.570092174458	0.203333333334
1	5489	23.575092174459	0.310000000002
1	5657	24.305595463764	0.308333333335
1	5679	24.403928797097	0.101666666667
1	5795	26.0928909751	0.101666666667
1	5919	26.296224308434	0.203333333334
1	6145	26.711571005175	0.203333333334
1	6271	26.854651616189	0.305000000001
1	6273	26.854651616189	0.101666666667
1	6304	26.916571005176	0.306666666668
1	6378	29.3945522468	0.305000000001
1	6520	30.004785580133	0.305000000001
1	6548	30.008118913467	0.308333333335
1	6850	30.359055131376	0.203333333334
1	6871	30.364055131377	0.310000000002
1	6887	30.375721798046	0.318704297533
1	6904	30.460518356381	0.101666666667
1	7021	30.663851689715	0.203333333334
1	7082	30.98585513138	0.305133333333
1	7210	31.597521798049	0.306666666668
1	7394	33.334455973375	0.101666666667
1	7406	33.336122640042	0.306666666668
1	7586	34.070281009894	0.305000000001
1	7654	34.275281009895	0.306666666668
1	7775	35.622819060359	0.305000000001
1	8003	36.233119060361	0.305000000001
1	8006	36.234785727028	0.306666666668
1	8184	36.565127732761	0.408333333335
1	8275	36.768461066095	0.306666666668
1	8300	36.852819060359	0.305000000001
2	108	6.171624668001	0.111666666669
2	277	6.573291334668	0.208333333335
2	444	6.857493995941	0.206666666668
2	571	7.060827329275	0.206666666668
2	712	7.234622293112	0.205000000001
2	777	7.333332002621	0.111666666669
2	800	7.337955626446	0.206666666668
2	916	7.52833200262	0.103333333334
2	1056	7.860269128183	0.210000000002
2	1182	8.266935794851	0.210000000002
2	1232	8.463845697397	0.203333333334
2	1364	8.870512364065	0.203333333334
2	1406	8.877179030733	0.210000000002
2	1445	8.948783398485	0.106666666668
2	1601	9.155450065153	0.110000000002
2	1777	9.668253529537	0.206666666668
2	1818	9.769920196204	0.105000000001
2	2035	10.303872283661	0.208333333335
2	2063	10.402205616994	0.205000000001
2	2202	11.05941668832	0.210000000002
2	2279	11.264416688321	0.110000000002
2	2449	12.514559233888	0.111666666669
2	2645	12.914559233888	0.206666666668
2	2688	12.975742803114	0.111666666669
2	2797	13.170742803113	0.103333333334
2	2951	13.472028655844	0.208333333335
2	3022	13.677028655845	0.210000000002
2	3076	14.802313418759	0.203333333334
2	3157	15.209002307649	0.203333333334
2	3199	15.215668974317	0.210000000002
2	3436	17.022184452454	0.208333333335
2	3514	17.228851119122	0.110000000002
2	3627	17.483490014044	0.103333333334
2	3734	17.788490014045	0.205000000001
2	3762	19.852545396059	0.101666666667
2	3790	20.055912062726	0.1017
2	3944	20.260912062727	0.103333333334
2	4152	20.56644323797	0.205000000001
2	4216	20.655189150201	0.105000000001
2	4255	20.672578729396	0.208333333335
2	4454	20.930209255793	0.208333333335
2	4474	20.960189150202	0.206666666668
2	4561	21.136875922461	0.110000000002
2	4698	21.43815359712	0.103333333334
2	4803	21.646486930455	0.210000000002
2	4820	21.665528043373	0.203333333334
2	4877	22.072305821151	0.203444444444
2	5080	22.482305821153	0.206666666668
2	5148	22.638300840398	0.206666666668
2	5218	22.846634173733	0.110000000002
2	5291	23.163381063346	0.101666666667
2	5338	23.366758841124	0.101666666667
2	5388	23.376758841126	0.111666666669
2	5579	24.108928797098	0.111666666669
2	5711	24.507262130431	0.205000000001
2	5870	26.196224308434	0.205000000001
2	5926	26.299557641768	0.206666666668
2	5948	26.304815449618	0.101666666667
2	5976	26.508237671841	0.101755555556
2	6128	26.654651616189	0.105000000001
2	6175	26.71990433851	0.110000000002
2	6288	26.857984949523	0.105000000001
2	6460	29.811452246801	0.111666666669
2	6514	29.952321798042	0.101666666667
2	6645	30.155721798042	0.101666666667
2	6696	30.165721798044	0.111666666669
2	6729	30.213118913468	0.208333333335
2	6982	30.563851689715	0.205000000001
2	7031	30.667185023049	0.206666666668
2	7163	31.400855131383	0.110000000002
2	7305	33.132789306708	0.103333333334
2	7435	33.437789306709	0.205000000001
2	7526	33.870281009894	0.105000000001
2	7607	34.078614343229	0.110000000002
2	7807	35.749454949251	0.101666666667
2	7906	36.031452393694	0.103333333334
2	8084	36.368461066095	0.211666666669
2	8200	36.571794399429	0.110000000002
3	123	6.244160662605	0.203333333334
3	208	6.379958001336	0.320000000004
3	274	6.571624668001	0.206666666668
3	296	6.650827329273	0.203333333334
3	470	6.927944515333	0.101666666667
3	578	7.062493995942	0.208333333335
3	596	7.131288959778	0.101666666667
3	627	7.132955626445	0.103333333334
3	906	7.526665335953	0.101666666667
3	941	7.541665335956	0.320000000004
3	1052	7.856935794849	0.206666666668
3	1196	8.273602461519	0.21666666667
3	1400	8.873845697399	0.206666666668
3	1538	9.048783398485	0.206666666668
3	1572	9.0788456974	0.208333333335
3	1671	9.363783398488	0.318333333337
3	1792	9.671586862871	0.210000000002
3	1851	9.871586862871	0.206666666668
3	2002	10.29887228366	0.101666666667
3	2034	10.303872283661	0.208333333335
3	2198	11.056083354986	0.206666666668
3	2335	11.472750021656	0.318333333337
3	2553	12.722892567223	0.320000000004
3	2598	12.857006433619	0.203333333334
3	2652	12.916225900555	0.208333333335
3	2787	13.169076136446	0.101666666667
3	2822	13.184076136449	0.320000000004
3	2826	13.263695322509	0.203355555556
3	3036	13.683695322513	0.21666666667
3	3193	15.212335640983	0.206666666668
3	3269	15.417335640984	0.208333333335
3	3287	16.203817785784	0.305000000001
3	3315	16.588401283803	0.203333333334
3	3340	16.813851119119	0.305033333334
3	3607	17.437184452457	0.318333333337
3	3619	17.481823347377	0.101666666667
3	3701	17.685156680711	0.101666666667
3	3827	20.111709255791	0.305000000001
3	3927	20.25924539606	0.101666666667
3	3965	20.265912062728	0.210000000002
3	4046	20.463109904636	0.101666666667
3	4249	20.670912062729	0.206666666668
3	4266	20.721875922458	0.305166666666
3	4338	20.758522483535	0.208333333335
3	4481	20.961855816869	0.208333333335
3	4656	21.345209255796	0.318333333337
3	4668	21.436486930453	0.101666666667
3	4817	21.653153597123	0.21666666667
3	4859	21.868861376707	0.203333333334
3	4958	22.275639154485	0.203333333334
3	4997	22.282305821153	0.210000000002
3	5104	22.533300840397	0.101666666667
3	5278	23.054967507068	0.318333333337
3	5488	23.575092174459	0.208333333335
3	5501	23.585092174461	0.320000000004
3	5669	24.317262130433	0.320000000004
3	5681	24.403928797097	0.101666666667
3	5797	26.0928909751	0.101666666667
3	5936	26.301224308435	0.208333333335
3	6113	26.651318282855	0.101666666667
3	6167	26.716571005176	0.208333333335
3	6313	26.928237671845	0.318333333337
3	6326	26.95965161619	0.206666666668
3	6562	30.019785580136	0.320000000004
3	6726	30.211452246801	0.206666666668
3	6740	30.257118356381	0.101666666667
3	6870	30.364055131377	0.208333333335
3	6884	30.374055131379	0.320000000004
3	6902	30.460518356381	0.101666666667
3	6933	30.462185023048	0.103333333334
3	7219	31.609188464718	0.318333333337
3	7297	33.131122640041	0.101666666667
3	7396	33.334455973375	0.101666666667
3	7511	33.86694767656	0.101666666667
3	7663	34.286947676564	0.318333333337
3	7898	36.029785727027	0.101666666667
3	8099	36.375127732763	0.218333333337
3	8285	36.780127732764	0.318333333337
4	145	6.269958001334	0.210000000002
4	333	6.671624668001	0.306666666668
4	365	6.754160662607	0.103333333334
4	490	6.957493995941	0.103333333334
4	520	7.018332002618	0.203333333334
4	709	7.234622293112	0.103333333334
4	711	7.234622293112	0.205000000001
4	828	7.424998669286	0.203333333334
4	870	7.431665335954	0.210000000002
4	1075	7.958602461516	0.308333333335
4	1133	8.16193579485	0.105000000001
4	1476	8.973845697399	0.103333333334
4	1498	8.980512364067	0.313333333336
4	1537	9.048783398485	0.206666666668
4	1632	9.253783398486	0.208333333335
4	1718	9.564920196203	0.103333333334
4	1847	9.869920196204	0.205000000001
4	2062	10.402205616994	0.205000000001
4	2064	10.402205616994	0.306666666668
4	2240	11.157750021653	0.308333333335
4	2306	11.362750021654	0.208333333335
4	2484	12.612892567221	0.210000000002
4	2505	12.660720580889	0.203333333334
4	2574	12.811225900554	0.103333333334
4	2715	13.067409469779	0.203333333334
4	2757	13.074076136447	0.210000000002
4	2892	13.36869532251	0.105000000001
4	2977	13.572028655844	0.105000000001
4	3228	15.312335640983	0.103333333334
4	3250	15.319002307651	0.313333333336
4	3394	16.91885111912	0.105000000001
4	3415	16.973445569598	0.203333333334
4	3545	17.327184452455	0.208333333335
4	3562	17.38015668071	0.203377777778
4	3733	17.788490014045	0.205000000001
4	3776	19.954212062726	0.101666666667
4	3845	20.157578729393	0.101666666667
4	3892	20.160912062727	0.105000000001
4	4151	20.56644323797	0.205000000001
4	4326	20.755189150201	0.205000000001
4	4352	20.770912062729	0.306666666668
4	4378	20.826875922459	0.105000000001
4	4412	20.856855816868	0.103333333334
4	4542	21.13146470823	0.101666666667
4	4594	21.235209255794	0.208333333335
4	4617	21.334820263786	0.101688888889
4	4749	21.541486930454	0.105000000001
4	4940	22.177305821152	0.105000000001
4	5015	22.378972487819	0.103333333334
4	5145	22.636634173731	0.205000000001
4	5245	22.944967507066	0.208333333335
4	5425	23.470092174458	0.103333333334
4	5455	23.476758841126	0.211666666669
4	5610	24.207262130431	0.210000000002
4	5710	24.507262130431	0.205000000001
4	5850	26.142918282854	0.203333333334
4	5868	26.196224308434	0.103333333334
4	5908	26.204557641769	0.213333333336
4	6009	26.549651616188	0.2034
4	6080	26.611571005175	0.103333333334
4	6248	26.818237671843	0.208333333335
4	6322	26.957984949523	0.205000000001
4	6392	29.51099705736	0.203333333334
4	6497	29.909785580134	0.210000000002
4	6762	30.259055131376	0.103333333334
4	6792	30.265721798044	0.211666666669
4	6815	30.311452246801	0.306666666668
4	6979	30.563851689715	0.103333333334
4	6981	30.563851689715	0.205000000001
4	7190	31.499188464716	0.208333333335
4	7231	32.622611528928	0.203333333334
4	7251	33.029455973374	0.203511111112
4	7422	33.358392121003	0.203333333334
4	7434	33.437789306709	0.205000000001
4	7469	33.765281009893	0.203555555556
4	7634	34.176947676562	0.208333333335
4	7712	35.317819060358	0.305000000001
4	7842	35.92811906036	0.305300000001
4	8027	36.263461066094	0.106666666668
4	8241	36.670127732762	0.208333333335
5	148	6.271624668001	0.211666666669
5	238	6.469958001334	0.105000000001
5	451	6.859160662608	0.208333333335
5	572	7.060827329275	0.206666666668
5	599	7.131288959778	0.101666666667
5	801	7.337955626446	0.206666666668
5	873	7.433332002621	0.211666666669
5	951	7.62833200262	0.203333333334
5	1023	7.756935794849	0.106666666668
5	1214	8.366935794851	0.310000000002
5	1223	8.435450065149	0.203333333334
5	1312	8.773845697399	0.106666666668
5	1327	8.842116731817	0.203333333334
5	1484	8.975512364066	0.105000000001
5	1635	9.255450065153	0.210000000002
5	1638	9.258231307313	0.203333333334
5	1747	9.664920196203	0.203333333334
5	1784	9.669920196204	0.208333333335
5	1961	10.200538950327	0.105000000001
5	2001	10.29887228366	0.101666666667
5	2169	10.956083354986	0.106666666668
5	2309	11.364416688321	0.210000000002
5	2487	12.614559233888	0.211666666669
5	2646	12.914559233888	0.206666666668
5	2760	13.075742803114	0.211666666669
5	2860	13.270742803113	0.203333333334
5	2945	13.470361989177	0.206666666668
5	3046	13.777028655845	0.310000000002
5	3142	15.112335640983	0.106666666668
5	3236	15.31400230765	0.105000000001
5	3337	16.791734617137	0.203333333334
5	3431	17.020517785787	0.206666666668
5	3548	17.328851119122	0.210000000002
5	3649	17.583490014044	0.203333333334
5	3700	17.685156680711	0.101666666667
5	3833	20.143455816866	0.203333333334
5	3893	20.160912062727	0.105000000001
5	3981	20.360912062727	0.203333333334
5	4045	20.463109904636	0.101666666667
5	4106	20.5501891502	0.2034
5	4169	20.569245396062	0.105000000001
5	4449	20.928542589126	0.206666666668
5	4475	20.960189150202	0.206666666668
5	4597	21.236875922461	0.210000000002
5	4734	21.53815359712	0.203333333334
5	4837	21.746486930455	0.310000000002
5	4941	22.177305821152	0.105000000001
5	5081	22.482305821153	0.206666666668
5	5111	22.534967507064	0.103333333334
5	5248	22.946634173733	0.210000000002
5	5433	23.471758841125	0.105000000001
5	5456	23.476758841126	0.211666666669
5	5613	24.208928797098	0.211666666669
5	5680	24.403928797097	0.101666666667
5	5796	26.0928909751	0.101666666667
5	5927	26.299557641768	0.206666666668
5	5954	26.346251616188	0.203333333334
5	6089	26.613237671842	0.105000000001
5	6192	26.752984949522	0.203333333334
5	6220	26.754651616189	0.205000000001
5	6251	26.81990433851	0.210000000002
5	6500	29.911452246801	0.211666666669
5	6623	30.109785580134	0.105000000001
5	6770	30.260721798043	0.105000000001
5	6793	30.265721798044	0.211666666669
5	6905	30.460518356381	0.101666666667
5	7032	30.667185023049	0.206666666668
5	7193	31.500855131383	0.210000000002
5	7337	33.232789306708	0.203333333334
5	7380	33.243317599841	0.101666666667
5	7395	33.334455973375	0.101666666667
5	7566	33.970281009894	0.205000000001
5	7637	34.178614343229	0.210000000002
5	7942	36.131452393694	0.203333333334
5	8147	36.468461066095	0.311666666669
5	8244	36.671794399429	0.210000000002
6	151	6.274958001335	0.215000000003
6	339	6.678291334669	0.313333333336
6	516	6.962493995942	0.311666666669
6	659	7.165827329276	0.311666666669
6	815	7.339622293113	0.310000000002
6	876	7.436665335955	0.215000000003
6	890	7.442955626447	0.311666666669
6	961	7.633332002621	0.208333333335
6	1081	7.965269128184	0.315000000003
6	1220	8.371935794852	0.315000000003
6	1246	8.638783398483	0.203333333334
6	1469	8.972179030732	0.101666666667
6	1502	8.982179030734	0.315000000003
6	1505	9.045450065151	0.203333333334
6	1547	9.053783398486	0.211666666669
6	1833	9.773253529538	0.311666666669
6	1857	9.874920196205	0.210000000002
6	2079	10.408872283662	0.313333333336
6	2095	10.507205616995	0.310000000002
6	2250	11.164416688321	0.315000000003
6	2312	11.367750021655	0.213333333336
6	2490	12.617892567222	0.215000000003
6	2706	13.019559233889	0.311666666669
6	2763	13.079076136448	0.215000000003
6	2872	13.275742803114	0.208333333335
6	2994	13.577028655845	0.313333333336
6	3052	13.782028655846	0.315000000003
6	3221	15.310668974316	0.101666666667
6	3254	15.320668974318	0.315000000003
6	3309	16.508817785785	0.305000000001
6	3452	17.11885111912	0.305000000001
6	3481	17.127184452455	0.313333333336
6	3688	17.588490014045	0.208333333335
6	3751	17.893490014046	0.310000000002
6	3848	20.157578729393	0.101666666667
6	4021	20.365912062728	0.208333333335
6	4252	20.671443237971	0.310000000002
6	4344	20.760189150202	0.210000000002
6	4358	20.777578729397	0.313333333336
6	4522	21.035209255794	0.313333333336
6	4532	21.065189150203	0.311666666669
6	4600	21.240209255795	0.213333333336
6	4756	21.543153597121	0.208333333335
6	4843	21.751486930456	0.315000000003
6	4910	22.126567507063	0.305000000001
6	4925	22.173972487818	0.101666666667
6	5134	22.587305821154	0.311666666669
6	5161	22.736634173731	0.305000000001
6	5190	22.743300840399	0.311666666669
6	5418	23.468425507791	0.101666666667
6	5459	23.48009217446	0.215000000003
6	5616	24.212262130432	0.215000000003
6	5728	24.612262130432	0.310000000002
6	5937	26.301224308435	0.310000000002
6	5963	26.404557641769	0.311666666669
6	6051	26.609904338508	0.101666666667
6	6232	26.75965161619	0.210000000002
6	6254	26.823237671844	0.213333333336
6	6332	26.962984949524	0.210000000002
6	6475	29.850655131375	0.101666666667
6	6503	29.914785580135	0.215000000003
6	6568	30.054055131375	0.101733333333
6	6754	30.257388464709	0.101666666667
6	6821	30.318118913469	0.313333333336
6	7042	30.668851689716	0.310000000002
6	7050	30.680721798047	0.305000000001
6	7063	30.77218502305	0.311666666669
6	7088	31.073543542363	0.305000000001
6	7110	31.290855131381	0.305000000001
6	7376	33.237789306709	0.208333333335
6	7456	33.54278930671	0.310000000002
6	7576	33.975281009895	0.210000000002
6	7640	34.181947676563	0.213333333336
6	7783	35.647788282584	0.101666666667
6	7828	35.85162773276	0.305000000001
6	7957	36.136452393695	0.208333333335
6	8114	36.461794399427	0.305000000001
6	8157	36.473461066096	0.31666666667
7	189	6.366624668	0.306666666668
7	392	6.771624668001	0.406666666668
7	416	6.854160662607	0.203333333334
7	565	7.057493995941	0.203333333334
7	747	7.243602461513	0.406666666668
7	782	7.334622293112	0.305000000001
7	789	7.336288959779	0.205000000001
7	903	7.526665335953	0.101666666667
7	917	7.52833200262	0.306666666668
7	1084	8.056935794849	0.406666666668
7	1109	8.058602461516	0.408333333335
7	1562	9.073845697399	0.203333333334
7	1575	9.080512364067	0.413333333336
7	1585	9.148783398485	0.306666666668
7	1655	9.350450065152	0.305000000001
7	1748	9.664920196203	0.203333333334
7	1870	9.969920196204	0.305000000001
7	2086	10.502205616994	0.406666666668
7	2089	10.503872283661	0.306666666668
7	2263	11.257750021653	0.408333333335
7	2323	11.45941668832	0.305000000001
7	2534	12.709559233887	0.306666666668
7	2639	12.911225900554	0.203333333334
7	2709	13.060339766953	0.203333333334
7	2784	13.169076136446	0.101666666667
7	2798	13.170742803113	0.306666666668
7	2918	13.467028655843	0.203333333334
7	2941	13.46869532251	0.205000000001
7	3259	15.412335640983	0.203333333334
7	3272	15.419002307651	0.413333333336
7	3428	17.01885111912	0.205000000001
7	3595	17.423851119121	0.305000000001
7	3617	17.481823347377	0.101666666667
7	3745	17.888490014045	0.305000000001
7	3924	20.25924539606	0.101666666667
7	3945	20.260912062727	0.205000000001
7	4232	20.66644323797	0.305000000001
7	4403	20.855189150201	0.305000000001
7	4436	20.870912062729	0.406666666668
7	4446	20.926875922459	0.205000000001
7	4468	20.956855816868	0.203333333334
7	4583	21.233131374897	0.101666666667
7	4611	21.33187592246	0.305000000001
7	4665	21.436486930453	0.101666666667
7	4696	21.43815359712	0.103333333334
7	4984	22.277305821152	0.205000000001
7	5074	22.478972487819	0.203333333334
7	5162	22.736634173731	0.305000000001
7	5266	23.041634173732	0.305000000001
7	5476	23.570092174458	0.203333333334
7	5494	23.576758841126	0.311666666669
7	5652	24.303928797097	0.306666666668
7	5722	24.607262130431	0.305000000001
7	5918	26.296224308434	0.203333333334
7	5945	26.304557641769	0.313333333336
7	6111	26.651318282855	0.101666666667
7	6144	26.711571005175	0.203333333334
7	6301	26.914904338509	0.305000000001
7	6335	27.057984949523	0.305000000001
7	6543	30.0064522468	0.306666666668
7	6849	30.359055131376	0.203333333334
7	6877	30.365721798044	0.311666666669
7	6893	30.411452246801	0.406666666668
7	7020	30.663851689715	0.305000000001
7	7024	30.665518356382	0.205000000001
7	7140	31.378543542364	0.305000000001
7	7207	31.595855131382	0.305000000001
7	7295	33.131122640041	0.101666666667
7	7450	33.537789306709	0.305000000001
7	7509	33.86694767656	0.101666666667
7	7651	34.273614343228	0.305000000001
7	7760	35.546627732759	0.305000000001
7	7896	36.029785727027	0.101666666667
7	7962	36.156794399426	0.305166666666
7	8272	36.766794399428	0.305000000001
7	8331	37.024853725884	0.203333333334
8	199	6.369958001334	0.310000000002
8	224	6.466624668	0.101666666667
8	371	6.755827329274	0.105000000001
8	401	6.826277848666	0.101666666667
8	491	6.957493995941	0.103333333334
8	526	7.029622293111	0.101677777778
8	710	7.234622293112	0.103333333334
8	934	7.531665335954	0.310000000002
8	955	7.629998669287	0.205000000001
8	1003	7.751935794848	0.101666666667
8	1210	8.363602461517	0.306666666668
8	1292	8.768845697398	0.101666666667
8	1425	8.943783398484	0.101666666667
8	1566	9.075512364066	0.205000000001
8	1661	9.353783398486	0.308333333335
8	1724	9.56658686287	0.105000000001
8	1804	9.76658686287	0.101666666667
8	1873	9.993861172548	0.101666666667
8	1922	10.197205616993	0.101666666667
8	1951	10.19887228366	0.103333333334
8	2149	10.951083354985	0.101666666667
8	2329	11.462750021654	0.308333333335
8	2544	12.712892567221	0.310000000002
8	2575	12.811225900554	0.103333333334
8	2815	13.174076136447	0.310000000002
8	2865	13.27240946978	0.205000000001
8	2886	13.367028655843	0.103333333334
8	3043	13.773695322511	0.306666666668
8	3122	15.107335640982	0.101666666667
8	3263	15.41400230765	0.205000000001
8	3388	16.917184452453	0.103333333334
8	3488	17.176778902932	0.203333333334
8	3601	17.427184452455	0.308333333335
8	3648	17.583490014044	0.203333333334
8	3682	17.586823347378	0.206666666668
8	3869	20.158043237969	0.101666666667
8	3946	20.260912062727	0.205000000001
8	3984	20.361443237969	0.101733333333
8	4008	20.362578729394	0.205000000001
8	4145	20.565912062728	0.101666666667
8	4208	20.653522483534	0.103333333334
8	4372	20.825209255792	0.103333333334
8	4413	20.856855816868	0.103333333334
8	4640	21.335209255794	0.308333333335
8	4743	21.539820263787	0.205000000001
8	4834	21.743153597121	0.306666666668
8	4850	21.821567507062	0.305000000001
8	4985	22.277305821152	0.205000000001
8	5016	22.378972487819	0.103333333334
8	5039	22.43163417373	0.305066666667
8	5272	23.044967507066	0.308333333335
8	5480	23.571758841125	0.205000000001
8	5495	23.576758841126	0.311666666669
8	5508	23.692095463763	0.305000000001
8	5627	24.30226213043	0.305000000001
8	5662	24.307262130431	0.310000000002
8	5735	25.787846530655	0.101666666667
8	5751	25.991224308433	0.101711111111
8	5869	26.196224308434	0.103333333334
8	6153	26.713237671842	0.205000000001
8	6221	26.754651616189	0.205000000001
8	6274	26.854651616189	0.101666666667
8	6307	26.918237671843	0.308333333335
8	6553	30.009785580134	0.310000000002
8	6609	30.1064522468	0.101666666667
8	6640	30.155451689714	0.101666666667
8	6824	30.358851689714	0.101733333333
8	6857	30.360721798043	0.205000000001
8	6878	30.365721798044	0.311666666669
8	6980	30.563851689715	0.103333333334
8	7213	31.599188464716	0.308333333335
8	7241	32.825944862262	0.203333333334
8	7324	33.141650933174	0.101666666667
8	7336	33.232789306708	0.203333333334
8	7370	33.236122640042	0.206666666668
8	7567	33.970281009894	0.205000000001
8	7657	34.276947676562	0.308333333335
8	7953	36.134785727028	0.206666666668
8	8142	36.465127732761	0.308333333335
8	8278	36.770127732762	0.308333333335
9	205	6.378291334669	0.318333333337
9	215	6.447493995939	0.203333333334
9	270	6.569958001334	0.205000000001
9	415	6.854160662607	0.203333333334
9	460	6.860827329275	0.210000000002
9	638	7.134622293112	0.105000000001
9	814	7.339622293113	0.208333333335
9	925	7.529998669287	0.105000000001
9	938	7.539998669289	0.318333333337
9	1045	7.855269128182	0.205000000001
9	1193	8.271935794852	0.215000000003
9	1392	8.872179030732	0.205000000001
9	1530	9.047116731818	0.205000000001
9	1550	9.054897973979	0.203333333334
9	1569	9.077179030733	0.206666666668
9	1668	9.362116731821	0.31666666667
9	1674	9.461586862869	0.203355555556
9	1848	9.869920196204	0.205000000001
9	2021	10.302205616994	0.105000000001
9	2032	10.303872283661	0.208333333335
9	2191	11.054416688319	0.205000000001
9	2332	11.471083354989	0.31666666667
9	2364	12.097825900552	0.305000000001
9	2511	12.70789256722	0.305000000001
9	2550	12.721225900556	0.318333333337
9	2806	13.17240946978	0.105000000001
9	2819	13.182409469782	0.318333333337
9	2952	13.472028655844	0.208333333335
9	3033	13.682028655846	0.215000000003
9	3185	15.210668974316	0.205000000001
9	3266	15.415668974317	0.206666666668
9	3437	17.022184452454	0.208333333335
9	3604	17.43551778579	0.31666666667
9	3641	17.486823347378	0.106666666668
9	3718	17.688490014045	0.105000000001
9	3953	20.262578729394	0.105000000001
9	3961	20.264245396061	0.208333333335
9	3972	20.3467891502	0.203333333334
9	4086	20.46644323797	0.105000000001
9	4242	20.669245396062	0.205000000001
9	4301	20.753522483534	0.203333333334
9	4331	20.756855816868	0.206666666668
9	4455	20.930209255793	0.208333333335
9	4653	21.343542589129	0.31666666667
9	4705	21.439820263787	0.105000000001
9	4814	21.651486930456	0.215000000003
9	4992	22.280639154486	0.208333333335
9	5087	22.48397248782	0.208333333335
9	5119	22.536634173731	0.105000000001
9	5275	23.053300840401	0.31666666667
9	5483	23.573425507792	0.206666666668
9	5498	23.583425507794	0.318333333337
9	5666	24.315595463766	0.318333333337
9	5695	24.407262130431	0.105000000001
9	5741	25.889513197322	0.101666666667
9	5794	26.0928909751	0.101666666667
9	5840	26.097890975101	0.106666666668
9	6129	26.654651616189	0.105000000001
9	6160	26.714904338509	0.206666666668
9	6310	26.926571005178	0.31666666667
9	6323	26.957984949523	0.205000000001
9	6559	30.018118913469	0.318333333337
9	6722	30.209785580134	0.205000000001
9	6863	30.36238846471	0.206666666668
9	6881	30.372388464712	0.318333333337
9	6944	30.463851689715	0.105000000001
9	7041	30.668851689716	0.208333333335
9	7216	31.607521798051	0.31666666667
9	7319	33.136122640042	0.106666666668
9	7413	33.337789306709	0.105000000001
9	7527	33.870281009894	0.105000000001
9	7660	34.285281009897	0.31666666667
9	7921	36.034785727028	0.106666666668
9	8096	36.373461066096	0.21666666667
9	8282	36.778461066097	0.31666666667

