version 2
run General-43-20190529-16:33:09-844
attr configname General
attr datetime 20190529-16:33:09
attr experiment General
attr inifile omnetpp.ini
attr iterationvars ""
attr iterationvarsf ""
attr measurement ""
attr network networks.Net5
attr processid 844
attr repetition 43
attr replication #43
attr resultdir results
attr runnumber 43
attr seedset 43
param **.appType "\"App\""
param **.app.packetLength "1500 bytes"
param **.app.totalNodes 3
param **.destAddresses "\"0\""
param **.sendIaTime "uniform(5s, 10s)"
param **.sendIaTimeEvil 10ms

vector 0 Net5.rte[1].app endToEndDelay:vector ETV
attr interpolationmode none
attr title "end-to-end delay of arrived packets, vector"
attr unit s
vector 1 Net5.rte[0].app endToEndDelay:vector ETV
attr interpolationmode none
attr title "end-to-end delay of arrived packets, vector"
attr unit s
vector 2 Net5.rte[2].app endToEndDelay:vector ETV
attr interpolationmode none
attr title "end-to-end delay of arrived packets, vector"
attr unit s
0	7	5.676939484763	0.101666666667
0	19	5.880272818097	0.101666666667
0	48	6.083606151431	0.101666666667
0	62	7.687639802894	0.101666666667
0	82	7.890984247339	0.101666666667
0	92	7.892650914006	0.103333333334
0	132	8.452010506431	0.101666666667
0	147	8.553677173098	0.101666666667
0	181	11.725825357118	0.101666666667
0	195	11.827492023785	0.101666666667
0	203	13.292068498774	0.101666666667
0	215	13.495435165441	0.1017
0	245	13.698768498775	0.101666666667
0	258	16.018090883004	0.101666666667
0	278	16.221457549671	0.101666666667
0	288	16.223124216338	0.103333333334
0	302	22.302304092661	0.101666666667
0	342	23.358666128912	0.101666666667
0	382	23.56204390669	0.101666666667
0	386	23.563710573357	0.103333333334
0	419	23.768666128912	0.101666666667
1	13	5.77860615143	0.101666666667
1	33	5.981939484764	0.101666666667
1	43	5.983606151431	0.103333333334
1	83	7.890984247339	0.101666666667
1	97	7.992650914006	0.101666666667
1	105	8.146999395319	0.101666666667
1	117	8.350343839764	0.101677777778
1	146	8.553677173098	0.101666666667
1	160	11.522469801562	0.101666666667
1	180	11.725825357118	0.101666666667
1	190	11.727492023785	0.103333333334
1	230	13.597101832108	0.101666666667
1	244	13.698768498775	0.101666666667
1	279	16.221457549671	0.101666666667
1	293	16.323124216338	0.101666666667
1	326	23.256999462245	0.101666666667
1	358	23.460377240023	0.101711111111
2	34	5.981939484764	0.101666666667
2	49	6.083606151431	0.101666666667
2	56	7.585973136227	0.101666666667
2	68	7.789317580672	0.101677777778
2	98	7.992650914006	0.101666666667
2	111	8.248666061986	0.101666666667
2	131	8.452010506431	0.101666666667
2	141	8.453677173098	0.103333333334
2	154	11.420803134895	0.101666666667
2	166	11.624158690451	0.101688888889
2	196	11.827492023785	0.101666666667
2	209	13.393735165441	0.101666666667
2	229	13.597101832108	0.101666666667
2	239	13.598768498775	0.103333333334
2	252	15.916424216337	0.101666666667
2	264	16.119790883004	0.1017
2	294	16.323124216338	0.101666666667
2	308	22.403970759328	0.101666666667
2	383	23.56204390669	0.101666666667
2	403	23.666999462245	0.101666666667
2	435	23.870377240023	0.101711111111

