version 2
run General-36-20190610-18:04:02-8852
attr configname General
attr datetime 20190610-18:04:02
attr experiment General
attr inifile omnetpp.ini
attr iterationvars ""
attr iterationvarsf ""
attr measurement ""
attr network networks.Net5
attr processid 8852
attr repetition 36
attr replication #36
attr resultdir results
attr runnumber 36
attr seedset 36
param **.appType "\"App\""
param **.app.packetLength "1500 bytes"
param **.app.totalNodes 10
param **.destAddresses "\"0\""
param **.sendIaTime "uniform(5s, 10s)"
param **.sendIaTimeEvil 10ms

vector 0 Net5.rte[6].app endToEndDelay:vector ETV
attr interpolationmode none
attr title "end-to-end delay of arrived packets, vector"
attr unit s
vector 1 Net5.rte[1].app endToEndDelay:vector ETV
attr interpolationmode none
attr title "end-to-end delay of arrived packets, vector"
attr unit s
vector 2 Net5.rte[9].app endToEndDelay:vector ETV
attr interpolationmode none
attr title "end-to-end delay of arrived packets, vector"
attr unit s
vector 3 Net5.rte[4].app endToEndDelay:vector ETV
attr interpolationmode none
attr title "end-to-end delay of arrived packets, vector"
attr unit s
vector 4 Net5.rte[2].app endToEndDelay:vector ETV
attr interpolationmode none
attr title "end-to-end delay of arrived packets, vector"
attr unit s
vector 5 Net5.rte[5].app endToEndDelay:vector ETV
attr interpolationmode none
attr title "end-to-end delay of arrived packets, vector"
attr unit s
vector 6 Net5.rte[3].app endToEndDelay:vector ETV
attr interpolationmode none
attr title "end-to-end delay of arrived packets, vector"
attr unit s
vector 7 Net5.rte[8].app endToEndDelay:vector ETV
attr interpolationmode none
attr title "end-to-end delay of arrived packets, vector"
attr unit s
vector 8 Net5.rte[7].app endToEndDelay:vector ETV
attr interpolationmode none
attr title "end-to-end delay of arrived packets, vector"
attr unit s
vector 9 Net5.rte[0].app endToEndDelay:vector ETV
attr interpolationmode none
attr title "end-to-end delay of arrived packets, vector"
attr unit s
0	31	5.743194985037	0.305000000001
0	37	5.761152303378	0.305000000001
0	87	6.325867236724	0.305000000001
0	246	8.521404403407	0.208333333335
0	291	8.723071070074	0.308333333335
0	498	9.197530990519	0.206666666668
0	504	9.20253099052	0.313333333336
0	554	9.341795656431	0.305000000001
0	568	9.354202627204	0.101666666667
0	755	9.769202627207	0.313333333336
0	779	9.951795656433	0.305000000001
0	1077	10.566795656436	0.310000000002
0	1164	10.680925529696	0.310000000002
0	1188	10.782592196363	0.208333333335
0	1331	12.500979032951	0.215000000003
0	1453	12.902645699618	0.311666666669
0	1516	15.078775469579	0.305000000001
0	1641	15.301197191314	0.208333333335
0	1826	15.606197191315	0.310000000002
0	1840	15.688808802914	0.305000000001
0	1865	15.695475469582	0.311666666669
0	2202	16.185607915425	0.208333333335
0	2258	16.272066303175	0.208333333335
0	2342	16.39394124876	0.213333333336
0	2356	16.473732969842	0.308333333335
0	2566	18.172246963238	0.206666666668
0	2582	18.178913629906	0.315000000003
0	2771	19.03804822	0.101666666667
0	2795	19.044714886668	0.311666666669
0	2968	20.892287812981	0.206666666668
0	3033	21.097287812982	0.310000000002
0	3047	21.156865636718	0.305000000001
0	3244	21.766932303386	0.305000000001
0	3269	21.773598970054	0.311666666669
0	3514	22.029588789985	0.311666666669
0	3623	22.168254266878	0.215000000003
0	3634	22.231255456652	0.310000000002
0	3738	22.566587600211	0.308333333335
0	4084	23.5969758295	0.310000000002
0	4116	23.655081523703	0.206666666668
0	4224	23.698642496167	0.208333333335
0	4252	23.758465938936	0.101666666667
0	4312	23.770132605605	0.215000000003
0	4345	23.863414857038	0.313333333336
0	4538	25.691948310415	0.311666666669
0	4602	25.898614977083	0.213333333336
0	4818	26.536151756886	0.206666666668
0	4824	26.541151756887	0.313333333336
0	4830	26.62063651492	0.305000000001
0	4869	27.230903181589	0.305266666668
0	4945	27.400775281778	0.305000000001
0	5104	27.845903181592	0.310000000002
0	5123	28.010875281779	0.3051
0	5431	28.624208615115	0.308333333335
0	5525	28.785220239025	0.310000000002
0	5612	28.990220239026	0.311666666669
0	5717	29.188744968922	0.215000000003
0	5799	29.385411635588	0.208333333335
0	5937	30.043986176548	0.210000000002
0	6178	30.452319509883	0.313333333336
0	6196	30.502488021042	0.101666666667
0	6220	30.50915468771	0.311666666669
0	6420	31.393152146414	0.310000000002
0	6455	31.596485479748	0.310000000002
0	6473	33.62202989177	0.305000000001
0	6524	34.232429891771	0.3054
0	6838	34.847429891774	0.310000000002
0	6913	35.034569078376	0.310000000002
0	6995	35.242902411711	0.213333333336
0	7168	35.607672784434	0.308333333335
0	7189	35.709339451101	0.206666666668
0	7359	36.284602231992	0.208333333335
0	7400	36.486268898659	0.308333333335
0	7585	37.185192452912	0.101666666667
0	7619	37.195192452914	0.315000000003
0	7740	37.714816158891	0.206666666668
0	7845	38.124816158893	0.311666666669
0	8048	39.956300768476	0.311666666669
0	8081	40.157967435143	0.310000000002
0	8137	41.051605331145	0.305000000001
0	8196	41.26378114273	0.101666666667
0	8439	41.661805331145	0.305000000001
0	8480	41.671805331147	0.315000000003
0	8489	41.676805331148	0.311357521751
0	8805	42.230100084119	0.206666666668
0	8812	42.23510008412	0.313333333336
0	9015	42.717618170113	0.208333333335
0	9108	42.844090838137	0.310000000002
0	9133	42.920951503447	0.208333333335
0	9195	43.052424171472	0.213333333336
0	9355	44.239264723105	0.206666666668
0	9420	44.544264723106	0.308333333335
0	9586	46.443261297234	0.208333333335
0	9673	46.748261297235	0.310000000002
0	9805	47.517955684624	0.206666666668
0	9932	47.927955684626	0.311666666669
0	10115	48.753458628447	0.311666666669
0	10187	48.960125295115	0.213333333336
0	10227	49.327434399297	0.305000000001
0	10346	49.93766773263	0.305000000001
0	10383	49.947667732632	0.315000000003
0	10658	52.053658405934	0.208333333335
0	10671	52.061991739269	0.318333333337
0	10934	53.655005727976	0.310000000002
0	11053	53.860005727977	0.311666666669
0	11099	53.921263663632	0.315000000003
0	11189	54.219596996965	0.308333333335
0	11314	54.578898354269	0.101666666667
0	11356	54.590565020938	0.215000000003
0	11512	56.691860389828	0.203333333334
0	11593	56.864345185021	0.308333333335
0	11614	56.966011851688	0.206666666668
0	11759	58.022715965034	0.210000000002
0	11826	58.229382631702	0.213333333336
0	11912	60.935289051916	0.305000000001
0	11926	61.006528567955	0.203333333334
0	12090	61.402598112086	0.215000000003
0	12153	61.545855718585	0.305566666668
0	12311	61.800931445419	0.308333333335
0	12419	62.160855718588	0.310000000002
0	12498	63.163844123191	0.101666666667
0	12631	63.407018566936	0.101666666667
0	12715	63.578844123194	0.313333333336
0	12731	63.61045190027	0.101666666667
0	12762	63.612118566937	0.103333333334
0	12978	63.917589202412	0.208333333335
0	13056	64.125922535747	0.213333333336
0	13480	67.965264115812	0.215000000003
0	13499	68.019111367016	0.101666666667
0	13523	68.025778033684	0.311666666669
0	13662	68.156305578542	0.315000000003
0	13775	68.354638911875	0.208333333335
0	13784	68.363597449145	0.308333333335
0	13797	68.535294610841	0.305000000001
0	13829	69.145894610843	0.305600000001
0	14065	69.760894610846	0.310000000002
0	14173	70.237645248211	0.215000000003
0	14295	70.639311914878	0.311666666669
0	14443	71.700977488786	0.305000000001
0	14518	71.865061460819	0.206666666668
0	14524	71.87006146082	0.313333333336
0	14652	72.311344155454	0.305000000001
0	14677	72.318010822122	0.311666666669
0	14860	72.525203757312	0.206666666668
0	14955	72.733537090647	0.313333333336
0	15086	74.581483493264	0.101666666667
0	15128	74.593150159933	0.215000000003
0	15333	75.926438981034	0.305000000001
0	15367	76.009632186187	0.310000000002
0	15395	76.111298852854	0.208333333335
0	15422	76.536872314368	0.305433333333
0	15639	77.150205647704	0.308333333335
0	15762	77.667521506872	0.208333333335
0	15834	77.875854840207	0.213333333336
0	15927	78.828911145749	0.305000000001
0	16106	79.439211145751	0.305300000001
0	16189	79.534491336058	0.208333333335
0	16381	79.839491336059	0.310000000002
1	67	6.020867236723	0.305000000001
1	73	6.048194985038	0.305000000001
1	145	8.414737736739	0.101666666667
1	212	8.516404403406	0.101666666667
1	432	9.092530990518	0.203333333334
1	547	9.295864323852	0.305000000001
1	607	9.455869293871	0.203333333334
1	769	9.862535960539	0.406666666668
1	928	10.260128989768	0.308333333335
1	1019	10.460128989768	0.203333333334
1	1110	10.575925529695	0.205000000001
1	1141	10.675925529695	0.101666666667
1	1223	11.980979032947	0.305000000001
1	1342	12.590979032949	0.305000000001
1	1370	12.594312366283	0.308333333335
1	1565	15.194530524646	0.101666666667
1	1769	15.499530524647	0.203333333334
1	1802	15.587142136247	0.203333333334
1	2017	15.995475469582	0.306666666668
1	2111	16.165399636507	0.101666666667
1	2224	16.267066303174	0.101666666667
1	2267	16.282274582091	0.305000000001
1	2365	16.487274582092	0.306666666668
1	2592	18.270580296571	0.305000000001
1	2595	18.275580296572	0.411666666669
1	2669	18.831223770676	0.203333333334
1	2713	18.936381553333	0.203333333334
1	2804	19.139714886667	0.203333333334
1	3002	20.990621146314	0.203333333334
1	3021	20.997287812982	0.311666666669
1	3065	21.311188789982	0.203333333334
1	3183	21.665265636719	0.203333333334
1	3207	21.717922123316	0.2034
1	3563	22.073598970054	0.306666666668
1	3578	22.124588789984	0.203333333334
1	3670	22.26158760021	0.308333333335
1	3692	22.359920933543	0.101666666667
1	3935	23.491975829499	0.205000000001
1	4061	23.591975829499	0.101666666667
1	4232	23.753414857036	0.305000000001
1	4339	23.860132605603	0.203333333334
1	4357	23.865132605604	0.310000000002
1	4372	23.95674819037	0.406666666668
1	4489	25.58361497708	0.203333333334
1	4620	25.991948310415	0.306666666668
1	4757	26.431151756885	0.203333333334
1	4836	26.634485090219	0.305000000001
1	5016	27.539236514924	0.308333333335
1	5080	27.739236514924	0.203333333334
1	5238	28.271842461245	0.203333333334
1	5274	28.319208615114	0.308333333335
1	5304	28.417541948447	0.101666666667
1	5443	28.678553572357	0.203333333334
1	5467	28.680220239024	0.205000000001
1	5739	29.27874496892	0.101666666667
1	5761	29.282078302254	0.308333333335
1	5882	29.935652843213	0.101666666667
1	6118	30.400821354375	0.203333333334
1	6226	30.545652843215	0.406666666668
1	6236	30.604154687709	0.203333333334
1	6365	31.288152146413	0.205000000001
1	6435	31.48981881308	0.203333333334
1	6671	34.540763225106	0.308333333335
1	6774	34.740763225106	0.203333333334
1	6810	34.826235745041	0.101666666667
1	7042	35.336235745043	0.306666666668
1	7061	35.401006117766	0.101666666667
1	7199	35.807672784434	0.305000000001
1	7254	36.177935565324	0.101666666667
1	7325	36.279602231991	0.101666666667
1	7625	37.203049492223	0.305000000001
1	7634	37.286859119579	0.203333333334
1	7640	37.288525786246	0.408333333335
1	7746	37.813149492224	0.305000000001
1	7769	37.814816158891	0.306666666668
1	7862	39.237856324029	0.203333333334
1	7882	39.644634101807	0.203444444444
1	8058	40.051300768475	0.203333333334
1	8255	41.365447809397	0.203333333334
1	8397	41.568781142731	0.203333333334
1	8512	41.765138664479	0.408333333335
1	8637	41.968471997813	0.306666666668
1	8735	42.125100084118	0.203333333334
1	8824	42.328433417452	0.305000000001
1	8949	42.635757504802	0.101666666667
1	9051	42.814284836779	0.305000000001
1	9053	42.814284836779	0.101666666667
1	9209	43.145757504804	0.306666666668
1	9371	44.337598056438	0.101666666667
1	9383	44.339264723105	0.306666666668
1	9507	46.336594630566	0.101666666667
1	9646	46.641594630567	0.203333333334
1	9695	46.971177662923	0.203333333334
1	9701	47.00612235129	0.305000000001
1	9815	47.616289017957	0.305000000001
1	9838	47.617955684624	0.306666666668
1	10062	48.645125295112	0.203333333334
1	10207	49.053458628447	0.306666666668
1	10399	50.041001065964	0.408333333335
1	10462	50.244334399298	0.306666666668
1	10478	51.540213961487	0.101666666667
1	10490	51.743658405932	0.101777777778
1	10592	51.946991739266	0.101666666667
1	10723	53.141516839086	0.203333333334
1	10825	53.548339061308	0.203333333334
1	10849	53.550005727975	0.205000000001
1	11119	54.012930330297	0.101666666667
1	11131	54.014596996964	0.408333333335
1	11370	54.680565020936	0.203333333334
1	11382	54.685565020937	0.310000000002
1	11483	56.657678518353	0.101666666667
1	11620	57.064345185021	0.305000000001
1	11689	57.914382631699	0.101666666667
1	11840	58.322715965034	0.306666666668
1	12002	61.228283214583	0.203333333334
1	12065	61.347379192143	0.305000000001
1	12138	61.495931445418	0.308333333335
1	12193	61.594264778751	0.101666666667
1	12345	61.85418905192	0.308333333335
1	12399	62.05418905192	0.203333333334
1	12537	63.265510789858	0.203333333334
1	12787	63.672177456526	0.406666666668
1	12822	63.712118566937	0.203333333334
1	12974	63.917118566938	0.306666666668
1	13001	64.014255869078	0.305000000001
1	13070	64.219255869079	0.306666666668
1	13369	67.917444700349	0.203333333334
1	13589	68.058597449144	0.308333333335
1	13610	68.120778033683	0.203333333334
1	13672	68.156930782477	0.101666666667
1	13709	68.247972245207	0.101666666667
1	13720	68.249638911874	0.408333333335
1	13976	69.454227944178	0.308333333335
1	14039	69.654227944178	0.203333333334
1	14059	69.71737858154	0.305000000001
1	14184	70.327645248209	0.305000000001
1	14212	70.330978581543	0.308333333335
1	14457	71.760061460818	0.203333333334
1	14535	71.963394794152	0.305000000001
1	14622	72.209677488787	0.203333333334
1	14901	72.618010822122	0.306666666668
1	14909	72.623537090645	0.305000000001
1	14961	72.826870423979	0.406666666668
1	15142	74.683150159931	0.203333333334
1	15154	74.688150159932	0.310000000002
1	15307	75.904632186186	0.205000000001
1	15344	76.004632186186	0.101666666667
1	15557	76.845205647703	0.308333333335
1	15583	76.943538981036	0.101666666667
1	15776	77.764188173538	0.305000000001
1	15852	77.969188173539	0.306666666668
1	15864	78.036275038463	0.203333333334
1	15988	79.13391114575	0.305000000001
1	16074	79.42782466939	0.101666666667
1	16329	79.732824669391	0.203333333334
1	16351	79.744211145752	0.305000000001
1	16357	79.747544479086	0.308333333335
1	16405	79.957244479082	0.101666666667
2	76	6.066152303379	0.305000000001
2	214	8.516404403406	0.101666666667
2	245	8.521404403407	0.208333333335
2	282	8.68586432385	0.101666666667
2	313	8.889197657184	0.101666666667
2	436	9.092530990518	0.101666666667
2	641	9.462535960539	0.210000000002
2	730	9.672535960541	0.21666666667
2	809	9.964236640804	0.203333333334
2	946	10.271795656437	0.320000000004
2	983	10.370925529694	0.203355555556
2	1031	10.465128989769	0.208333333335
2	1185	10.780925529696	0.206666666668
2	1384	12.605979032952	0.320000000004
2	1432	12.797645699617	0.206666666668
2	1502	14.889486080201	0.203333333334
2	1603	15.296197191313	0.203333333334
2	1640	15.301197191314	0.208333333335
2	1815	15.592142136248	0.208333333335
2	2026	16.007142136251	0.318333333337
2	2075	16.078941248757	0.101666666667
2	2226	16.267066303174	0.101666666667
2	2257	16.272066303175	0.208333333335
2	2374	16.498941248761	0.318333333337
2	2500	18.067246963237	0.101666666667
2	2549	18.08224696324	0.218333333337
2	2751	18.941381553334	0.208333333335
2	2813	19.144714886668	0.208333333335
2	2886	20.78728781298	0.101666666667
2	3014	20.995621146315	0.208333333335
2	3122	21.514522123316	0.203333333334
2	3196	21.67026563672	0.208333333335
2	3359	21.92125545665	0.203333333334
2	3397	21.926255456651	0.208333333335
2	3572	22.085265636723	0.318333333337
2	3682	22.273254266879	0.320000000004
2	3694	22.359920933543	0.101666666667
2	3955	23.4969758295	0.210000000002
2	3970	23.550081523702	0.101666666667
2	4221	23.6969758295	0.206666666668
2	4301	23.766748190372	0.21666666667
2	4356	23.865132605604	0.208333333335
2	4369	23.875132605606	0.320000000004
2	4502	25.588614977081	0.208333333335
2	4629	26.003614977084	0.318333333337
2	4761	26.431151756885	0.101666666667
2	4789	26.436151756886	0.208333333335
2	5030	27.550903181593	0.320000000004
2	5092	27.744236514925	0.208333333335
2	5286	28.330875281783	0.320000000004
2	5306	28.417541948447	0.101666666667
2	5487	28.685220239025	0.210000000002
2	5555	28.885220239025	0.206666666668
2	5779	29.293744968923	0.320000000004
2	5796	29.383744968921	0.206666666668
2	5934	30.040652843214	0.206666666668
2	6112	30.355652843217	0.21666666667
2	6156	30.405821354376	0.208333333335
2	6245	30.60915468771	0.208333333335
2	6258	30.87972992419	0.203333333334
2	6341	31.286485479746	0.203333333334
2	6386	31.293152146414	0.210000000002
2	6688	34.552429891775	0.320000000004
2	6786	34.745763225107	0.208333333335
2	6811	34.826235745041	0.101666666667
2	7051	35.347902411712	0.318333333337
2	7063	35.401006117766	0.101666666667
2	7147	35.6043394511	0.101666666667
2	7327	36.279602231991	0.101666666667
2	7358	36.284602231992	0.208333333335
2	7570	37.098525786248	0.218333333337
2	7646	37.29185911958	0.208333333335
2	7699	37.60981615889	0.101666666667
2	7824	38.019816158892	0.206666666668
2	7872	39.441189657363	0.203333333334
2	7955	39.847967435141	0.203333333334
2	7993	39.852967435142	0.208333333335
2	8297	41.372114476065	0.210000000002
2	8417	41.573781142732	0.208333333335
2	8423	41.575138664481	0.218333333337
2	8646	41.980138664482	0.318333333337
2	8739	42.125100084118	0.101666666667
2	8771	42.130100084119	0.208333333335
2	8914	42.610951503445	0.101666666667
2	8950	42.635757504802	0.101666666667
2	9130	42.91928483678	0.206666666668
2	9218	43.157424171473	0.318333333337
2	9291	44.134264723104	0.101666666667
2	9373	44.337598056438	0.101666666667
2	9444	46.031461297233	0.203333333334
2	9495	46.267003806275	0.203333333334
2	9548	46.438261297233	0.203333333334
2	9585	46.443261297234	0.208333333335
2	9764	47.412955684623	0.101666666667
2	9901	47.822955684625	0.206666666668
2	10075	48.650125295113	0.208333333335
2	10216	49.065125295116	0.318333333337
2	10343	49.851001065966	0.218333333337
2	10471	50.256001065967	0.318333333337
2	10614	51.9503250726	0.206666666668
2	10655	52.051991739267	0.206666666668
2	10869	53.555005727976	0.210000000002
2	10999	53.755005727976	0.206666666668
2	11043	53.824596996966	0.218333333337
2	11121	54.012930330297	0.101666666667
2	11381	54.685565020937	0.208333333335
2	11394	54.695565020939	0.320000000004
2	11485	56.657678518353	0.101666666667
2	11572	56.861011851687	0.101666666667
2	11754	58.0193826317	0.206666666668
2	11849	58.334382631703	0.318333333337
2	12150	61.507598112087	0.320000000004
2	12195	61.594264778751	0.101666666667
2	12359	61.865855718589	0.320000000004
2	12411	62.059189051921	0.208333333335
2	12571	63.272177456526	0.210000000002
2	12663	63.482177456528	0.21666666667
2	12849	63.717118566938	0.208333333335
2	12882	63.810922535744	0.101666666667
2	12996	63.928785233607	0.318333333337
2	13079	64.230922535748	0.318333333337
2	13130	67.307244700347	0.203333333334
2	13186	67.714111367015	0.203533333334
2	13592	68.059638911876	0.218333333337
2	13604	68.070264115813	0.320000000004
2	13619	68.125778033684	0.208333333335
2	13674	68.156930782477	0.101666666667
2	13772	68.352972245208	0.206666666668
2	13990	69.465894610847	0.320000000004
2	14051	69.659227944179	0.208333333335
2	14226	70.342645248212	0.320000000004
2	14274	70.534311914877	0.206666666668
2	14326	71.395977488785	0.305000000001
2	14461	71.760061460818	0.101666666667
2	14489	71.765061460819	0.208333333335
2	14538	72.006344155453	0.305366666667
2	14749	72.420203757311	0.101666666667
2	14924	72.629677488791	0.318333333337
2	14942	72.636870423981	0.21666666667
2	15153	74.688150159932	0.208333333335
2	15166	74.698150159934	0.320000000004
2	15327	75.909632186187	0.210000000002
2	15392	76.109632186187	0.206666666668
2	15573	76.856872314372	0.320000000004
2	15585	76.943538981036	0.101666666667
2	15701	77.560854840204	0.101666666667
2	15861	77.980854840208	0.318333333337
2	15980	79.122624669389	0.203333333334
2	16150	79.529491336057	0.203333333334
2	16188	79.534491336058	0.208333333335
2	16370	79.759211145755	0.320000000004
3	94	8.109737736738	0.101666666667
3	106	8.313071070072	0.101666666667
3	213	8.516404403406	0.101666666667
3	457	9.095864323852	0.206666666668
3	491	9.194197657185	0.203333333334
3	585	9.357535960538	0.105000000001
3	752	9.765869293873	0.310000000002
3	880	10.163462323102	0.211666666669
3	886	10.167569974138	0.203333333334
3	1025	10.463462323102	0.206666666668
3	1085	10.574258863028	0.203333333334
3	1122	10.579258863029	0.208333333335
3	1328	12.497645699617	0.211666666669
3	1404	12.69597903295	0.105000000001
3	1482	14.686152746867	0.203333333334
3	1522	15.092863857979	0.203377777778
3	1775	15.502863857981	0.206666666668
3	1809	15.590475469581	0.206666666668
3	1931	15.860388525395	0.101666666667
3	1956	15.898808802916	0.210000000002
3	2033	16.06373296984	0.101677777778
3	2196	16.182274582091	0.205000000001
3	2225	16.267066303174	0.101666666667
3	2339	16.390607915426	0.210000000002
3	2559	18.168913629904	0.203333333334
3	2579	18.175580296572	0.311666666669
3	2743	18.939714886667	0.206666666668
3	2787	19.041381553334	0.105000000001
3	2949	20.888954479647	0.203333333334
3	3008	20.993954479648	0.206666666668
3	3190	21.668598970053	0.206666666668
3	3298	21.822922123317	0.105000000001
3	3460	21.976932303388	0.210000000002
3	3587	22.127922123318	0.206666666668
3	3620	22.164920933544	0.211666666669
3	3693	22.359920933543	0.101666666667
3	3762	23.083553607276	0.203333333334
3	3910	23.490309162832	0.203333333334
3	3947	23.495309162833	0.208333333335
3	4100	23.651748190369	0.203333333334
3	4275	23.76179927227	0.105000000001
3	4309	23.766799272271	0.211666666669
3	4333	23.860081523704	0.310000000002
3	4496	25.586948310414	0.206666666668
3	4599	25.895281643749	0.210000000002
3	4782	26.434485090219	0.206666666668
3	4811	26.532818423552	0.203333333334
3	4970	27.442569848258	0.211666666669
3	5086	27.742569848258	0.206666666668
3	5224	28.222541948448	0.211666666669
3	5305	28.417541948447	0.101666666667
3	5479	28.683553572358	0.208333333335
3	5494	28.770300524475	0.203333333334
3	5517	28.783553572358	0.105000000001
3	5669	29.177078302253	0.203333333334
3	5714	29.185411635588	0.211666666669
3	5728	29.223886176545	0.305000000001
3	5840	29.833986176546	0.3051
3	6148	30.404154687709	0.206666666668
3	6175	30.448986176549	0.310000000002
3	6212	30.505821354376	0.105000000001
3	6377	31.291485479747	0.208333333335
3	6441	31.493152146414	0.206666666668
3	6625	34.44409655844	0.211666666669
3	6780	34.74409655844	0.206666666668
3	6818	34.827902411708	0.103333333334
3	6992	35.239569078377	0.210000000002
3	7062	35.401006117766	0.101666666667
3	7182	35.706006117767	0.203333333334
3	7202	35.872868898657	0.101666666667
3	7215	36.076268898657	0.101733333333
3	7326	36.279602231991	0.101666666667
3	7607	37.188525786246	0.105000000001
3	7616	37.19185911958	0.311666666669
3	7729	37.711482825557	0.203333333334
3	7796	37.918149492225	0.105000000001
3	7933	39.749634101808	0.105000000001
3	8067	40.054634101809	0.206666666668
3	8213	41.267114476064	0.105000000001
3	8407	41.572114476065	0.206666666668
3	8474	41.668471997813	0.311666666669
3	8577	41.871805331147	0.210000000002
3	8763	42.128433417452	0.206666666668
3	8793	42.226766750785	0.203333333334
3	8818	42.305773725666	0.203333333334
3	8957	42.637424171469	0.103333333334
3	8979	42.712618170112	0.203333333334
3	9007	42.714284836779	0.205000000001
3	9192	43.049090838138	0.210000000002
3	9321	44.235931389771	0.203333333334
3	9372	44.337598056438	0.101666666667
3	9434	45.828127963899	0.203333333334
3	9462	46.234927963899	0.203466666666
3	9652	46.644927963901	0.206666666668
3	9794	47.51462235129	0.203333333334
3	9869	47.721289017958	0.105000000001
3	10069	48.648458628446	0.206666666668
3	10184	48.956791961781	0.210000000002
3	10378	49.944334399298	0.311666666669
3	10445	50.147667732632	0.210000000002
3	10484	51.641880628154	0.101666666667
3	10525	51.845325072599	0.101666666667
3	10568	51.8503250726	0.106666666668
3	10861	53.553339061309	0.208333333335
3	10926	53.653339061309	0.105000000001
3	11096	53.917930330298	0.311666666669
3	11120	54.012930330297	0.101666666667
3	11330	54.582231687603	0.105000000001
3	11353	54.587231687604	0.211666666669
3	11484	56.657678518353	0.101666666667
3	11607	56.962678518354	0.203333333334
3	11631	57.405827076142	0.203333333334
3	11651	57.812715965032	0.203555555556
3	11823	58.226049298368	0.210000000002
3	11999	61.209861901289	0.203333333334
3	12087	61.399264778752	0.211666666669
3	12194	61.594264778751	0.101666666667
3	12294	61.757522385254	0.211666666669
3	12405	62.057522385254	0.206666666668
3	12515	63.167177456525	0.105000000001
3	12712	63.57551078986	0.310000000002
3	12772	63.613785233604	0.105000000001
3	12924	63.820451900272	0.210000000002
3	12966	63.914255869078	0.205000000001
3	13053	64.122589202413	0.210000000002
3	13164	67.535905578539	0.305000000001
3	13399	67.920778033683	0.206666666668
3	13477	67.961930782478	0.211666666669
3	13515	68.02244470035	0.105000000001
3	13622	68.14630557854	0.305000000001
3	13658	68.152972245208	0.311666666669
3	13673	68.156930782477	0.101666666667
3	13928	69.357561277512	0.211666666669
3	14045	69.657561277512	0.206666666668
3	14170	70.234311914877	0.211666666669
3	14246	70.43264524821	0.105000000001
3	14482	71.763394794152	0.206666666668
3	14511	71.861728127485	0.203333333334
3	14629	72.213010822121	0.206666666668
3	14833	72.521344155456	0.210000000002
3	14842	72.523010822123	0.204473731479
3	14952	72.730203757313	0.310000000002
3	15102	74.584816826598	0.105000000001
3	15125	74.589816826599	0.211666666669
3	15187	75.496009963963	0.203333333334
3	15282	75.902965519519	0.203333333334
3	15319	75.90796551952	0.208333333335
3	15513	76.748538981037	0.211666666669
3	15584	76.943538981036	0.101666666667
3	15756	77.664188173538	0.205000000001
3	15831	77.872521506873	0.210000000002
3	15942	78.919291336055	0.203333333334
3	16021	79.326158002723	0.203533333334
3	16304	79.65087781242	0.211666666669
3	16336	79.736158002725	0.206666666668
3	16389	79.855577812415	0.101666666667
3	16425	80.059011145749	0.101766666667
4	100	8.211404403405	0.101666666667
4	143	8.414737736739	0.101666666667
4	173	8.416404403406	0.103333333334
4	382	8.992530990518	0.103333333334
4	495	9.195864323852	0.205000000001
4	632	9.457535960538	0.205000000001
4	748	9.762535960539	0.306666666668
4	933	10.261795656435	0.310000000002
4	960	10.360128989768	0.103333333334
4	1056	10.475925529695	0.105000000001
4	1142	10.675925529695	0.101666666667
4	1375	12.59597903295	0.310000000002
4	1390	12.692645699616	0.101666666667
4	1572	15.196197191313	0.103333333334
4	1701	15.399530524647	0.103333333334
4	1739	15.487142136247	0.103333333334
4	1925	15.824252142405	0.305000000001
4	1974	15.962055192062	0.101666666667
4	2020	15.997142136249	0.308333333335
4	2109	16.165399636507	0.101666666667
4	2139	16.167066303174	0.103333333334
4	2197	16.182274582091	0.205000000001
4	2368	16.488941248759	0.308333333335
4	2563	18.170580296571	0.205000000001
4	2578	18.175580296572	0.311666666669
4	2683	18.836381553333	0.103333333334
4	2807	19.141381553334	0.205000000001
4	2959	20.890621146314	0.103333333334
4	2992	20.897287812982	0.211666666669
4	3143	21.565265636719	0.103333333334
4	3174	21.648187600208	0.305000000001
4	3290	21.82125545665	0.103333333334
4	3490	22.024588789984	0.103333333334
4	3566	22.075265636721	0.308333333335
4	3640	22.258254266876	0.305000000001
4	3675	22.263254266877	0.310000000002
4	3848	23.391975829499	0.105000000001
4	4062	23.591975829499	0.101666666667
4	4109	23.653414857036	0.205000000001
4	4330	23.85674819037	0.306666666668
4	4342	23.86179927227	0.205000000001
4	4363	23.866799272271	0.311666666669
4	4459	25.48361497708	0.103333333334
4	4623	25.993614977082	0.308333333335
4	4713	26.331151756885	0.103333333334
4	4815	26.534485090219	0.205000000001
4	5021	27.540903181591	0.310000000002
4	5048	27.639236514924	0.103333333334
4	5071	27.705775281779	0.305000000001
4	5244	28.31587528178	0.305000000001
4	5279	28.320875281781	0.310000000002
4	5407	28.580220239024	0.105000000001
4	5503	28.780220239024	0.101666666667
4	5740	29.27874496892	0.101666666667
4	5768	29.283744968921	0.310000000002
4	5883	29.935652843213	0.101666666667
4	6059	30.300821354375	0.103333333334
4	6172	30.445652843215	0.306666666668
4	6239	30.605821354376	0.205000000001
4	6318	31.188152146413	0.105000000001
4	6403	31.38981881308	0.103333333334
4	6510	34.114369078374	0.305000000001
4	6676	34.542429891773	0.310000000002
4	6707	34.640763225106	0.103333333334
4	6738	34.724569078374	0.305199999999
4	6850	34.892539451099	0.203333333334
4	7006	35.299339451099	0.203466666666
4	7045	35.33790241171	0.308333333335
4	7186	35.707672784434	0.205000000001
4	7208	35.974535565324	0.101666666667
4	7252	36.177935565324	0.101666666667
4	7282	36.179602231991	0.103333333334
4	7608	37.188525786246	0.308333333335
4	7639	37.288525786246	0.205000000001
4	7739	37.714816158891	0.206666666668
4	7782	37.914816158891	0.101666666667
4	7925	39.747967435141	0.103333333334
4	8024	39.951300768475	0.103333333334
4	8282	41.367114476064	0.205000000001
4	8339	41.468781142731	0.103333333334
4	8466	41.665138664479	0.308333333335
4	8620	41.923857504802	0.305000000001
4	8640	41.97013866448	0.308333333335
4	8685	42.025100084118	0.103333333334
4	8797	42.228433417452	0.205000000001
4	8872	42.534090838135	0.305233333332
4	9008	42.714284836779	0.205000000001
4	9054	42.814284836779	0.101666666667
4	9212	43.147424171471	0.308333333335
4	9239	43.829086945325	0.203333333334
4	9320	44.235931389771	0.203333333334
4	9354	44.239264723105	0.206666666668
4	9514	46.338261297233	0.103333333334
4	9616	46.541594630567	0.103333333334
4	9804	47.517955684624	0.206666666668
4	9855	47.717955684624	0.101666666667
4	10032	48.545125295112	0.103333333334
4	10210	49.055125295114	0.308333333335
4	10373	49.941001065964	0.308333333335
4	10465	50.246001065965	0.308333333335
4	10526	51.845325072599	0.101666666667
4	10593	51.946991739266	0.101666666667
4	10738	53.300963663628	0.305000000001
4	10798	53.450005727975	0.105000000001
4	10912	53.650005727975	0.101666666667
4	11059	53.91126366363	0.305000000001
4	11090	53.914596996964	0.308333333335
4	11373	54.682231687603	0.205000000001
4	11388	54.687231687604	0.311666666669
4	11405	56.149078518352	0.203333333334
4	11439	56.556011851686	0.2036
4	11611	56.964345185021	0.205000000001
4	11690	57.914382631699	0.101666666667
4	11843	58.324382631701	0.308333333335
4	11902	60.882231445416	0.305000000001
4	12108	61.492598112084	0.305000000001
4	12143	61.497598112085	0.310000000002
4	12350	61.855855718587	0.310000000002
4	12373	61.95418905192	0.103333333334
4	12562	63.267177456525	0.205000000001
4	12709	63.572177456526	0.306666666668
4	12832	63.713785233604	0.205000000001
4	12967	63.914255869078	0.205000000001
4	12981	63.918785233605	0.308333333335
4	13073	64.220922535746	0.308333333335
4	13152	67.444864115809	0.305000000001
4	13267	67.817444700349	0.103333333334
4	13551	68.05526411581	0.305000000001
4	13597	68.060264115811	0.310000000002
4	13613	68.12244470035	0.205000000001
4	13652	68.149638911874	0.308333333335
4	13710	68.247972245207	0.101666666667
4	13981	69.455894610845	0.310000000002
4	14009	69.554227944178	0.103333333334
4	14217	70.33264524821	0.310000000002
4	14232	70.429311914876	0.101666666667
4	14411	71.660061460818	0.103333333334
4	14515	71.863394794152	0.205000000001
4	14586	72.109677488787	0.103333333334
4	14850	72.523537090645	0.205000000001
4	14904	72.619677488789	0.308333333335
4	14949	72.726870423979	0.306666666668
4	15145	74.684816826598	0.205000000001
4	15160	74.689816826599	0.311666666669
4	15255	75.804632186186	0.105000000001
4	15345	76.004632186186	0.101666666667
4	15408	76.231438981035	0.305000000001
4	15527	76.841872314369	0.305000000001
4	15562	76.84687231437	0.310000000002
4	15757	77.664188173538	0.205000000001
4	15855	77.970854840206	0.308333333335
4	16081	79.429491336057	0.103333333334
4	16260	79.632824669391	0.103333333334
4	16360	79.749211145753	0.310000000002
5	183	8.418071070073	0.105000000001
5	267	8.61973773674	0.205000000001
5	307	8.845869293869	0.203333333334
5	446	9.094197657185	0.103333333334
5	468	9.099197657186	0.210000000002
5	514	9.252535960537	0.203333333334
5	716	9.665869293873	0.210000000002
5	842	10.063462323102	0.111666666669
5	1024	10.463462323102	0.206666666668
5	1115	10.577592196362	0.206666666668
5	1156	10.679258863029	0.105000000001
5	1294	12.397645699617	0.111666666669
5	1435	12.799312366284	0.208333333335
5	1580	15.19786385798	0.105000000001
5	1774	15.502863857981	0.206666666668
5	1814	15.592142136248	0.208333333335
5	1910	15.798808802916	0.110000000002
5	2090	16.082274582091	0.105000000001
5	2149	16.168732969841	0.105000000001
5	2288	16.290607915426	0.110000000002
5	2313	16.370399636508	0.205000000001
5	2508	18.068913629904	0.103333333334
5	2535	18.075580296572	0.211666666669
5	2616	18.529692664443	0.203333333334
5	2712	18.936381553333	0.203333333334
5	2750	18.941381553334	0.208333333335
5	2913	20.788954479647	0.103333333334
5	3007	20.993954479648	0.206666666668
5	3195	21.67026563672	0.208333333335
5	3342	21.876932303388	0.110000000002
5	3398	21.926255456651	0.208333333335
5	3545	22.064920933544	0.111666666669
5	3586	22.127922123318	0.206666666668
5	3724	22.463254266877	0.205000000001
5	3901	23.453443716713	0.101666666667
5	3940	23.493642496166	0.206666666668
5	4000	23.551748190369	0.103333333334
5	4076	23.595309162833	0.105000000001
5	4125	23.656799272269	0.101666666667
5	4196	23.666799272271	0.111666666669
5	4257	23.760081523704	0.210000000002
5	4501	25.588614977081	0.208333333335
5	4569	25.795281643749	0.110000000002
5	4771	26.432818423552	0.103333333334
5	4793	26.437818423553	0.210000000002
5	4930	27.342569848258	0.111666666669
5	5085	27.742569848258	0.206666666668
5	5186	28.122541948448	0.111666666669
5	5373	28.520875281781	0.205000000001
5	5472	28.681886905691	0.206666666668
5	5558	28.886886905692	0.208333333335
5	5650	29.085411635588	0.111666666669
5	5759	29.282078302254	0.105000000001
5	5903	29.940652843214	0.106666666668
5	5914	29.994088021041	0.203333333334
5	6098	30.348986176549	0.210000000002
5	6117	30.400821354375	0.203333333334
5	6155	30.405821354376	0.208333333335
5	6370	31.28981881308	0.206666666668
5	6440	31.493152146414	0.206666666668
5	6585	34.34409655844	0.111666666669
5	6779	34.74409655844	0.206666666668
5	6867	34.931235745042	0.206666666668
5	6955	35.139569078377	0.110000000002
5	7118	35.5043394511	0.205000000001
5	7157	35.606006117767	0.103333333334
5	7292	36.181268898658	0.105000000001
5	7380	36.382935565325	0.205000000001
5	7414	36.676770230689	0.203333333334
5	7514	37.083525786245	0.203333333334
5	7556	37.09185911958	0.211666666669
5	7707	37.611482825557	0.103333333334
5	7827	38.021482825559	0.208333333335
5	7994	39.852967435142	0.208333333335
5	8066	40.054634101809	0.206666666668
5	8113	40.755158920507	0.203333333334
5	8151	41.162114476063	0.203622222222
5	8391	41.568471997813	0.211666666669
5	8413	41.573471997814	0.208024188417
5	8534	41.771805331147	0.110000000002
5	8749	42.126766750785	0.103333333334
5	8775	42.131766750786	0.210000000002
5	8929	42.614284836779	0.105000000001
5	9034	42.740757504803	0.206666666668
5	9068	42.817618170113	0.105000000001
5	9159	42.949090838138	0.110000000002
5	9299	44.135931389771	0.103333333334
5	9406	44.440931389772	0.205000000001
5	9522	46.3399279639	0.105000000001
5	9595	46.470337139609	0.203333333334
5	9651	46.644927963901	0.206666666668
5	9772	47.41462235129	0.103333333334
5	9904	47.824622351292	0.208333333335
5	10074	48.650125295113	0.208333333335
5	10150	48.856791961781	0.110000000002
5	10329	49.844334399298	0.211666666669
5	10415	50.047667732632	0.110000000002
5	10612	51.9503250726	0.105000000001
5	10634	51.958658405935	0.215000000003
5	10854	53.551672394642	0.206666666668
5	11002	53.756672394643	0.208333333335
5	11029	53.817930330298	0.211666666669
5	11162	54.116263663631	0.205000000001
5	11180	54.189253829387	0.203333333334
5	11195	54.273831687602	0.101666666667
5	11241	54.477231687602	0.101666666667
5	11291	54.487231687604	0.111666666669
5	11543	56.761011851687	0.205000000001
5	11582	56.862678518354	0.103333333334
5	11710	57.9193826317	0.106666666668
5	11793	58.126049298368	0.110000000002
5	12042	61.299264778752	0.111666666669
5	12101	61.431616547917	0.203333333334
5	12242	61.657522385254	0.111666666669
5	12264	61.697598112085	0.205000000001
5	12404	62.057522385254	0.206666666668
5	12433	62.655333012078	0.203333333334
5	12453	63.062177456524	0.203511111112
5	12585	63.305351900269	0.101666666667
5	12649	63.47551078986	0.210000000002
5	12672	63.508785233603	0.101766666667
5	12858	63.720451900272	0.110000000002
5	12900	63.814255869078	0.105000000001
5	13022	64.022589202413	0.110000000002
5	13158	67.510578033681	0.203333333334
5	13351	67.861930782478	0.111666666669
5	13368	67.917444700349	0.203333333334
5	13406	67.92244470035	0.208333333335
5	13545	68.052972245208	0.211666666669
5	13727	68.251305578541	0.105000000001
5	13747	68.260264115811	0.205000000001
5	13890	69.257561277512	0.111666666669
5	14044	69.657561277512	0.206666666668
5	14136	70.134311914877	0.111666666669
5	14277	70.535978581544	0.208333333335
5	14471	71.761728127485	0.103333333334
5	14493	71.766728127486	0.210000000002
5	14634	72.214677488788	0.208333333335
5	14771	72.421344155456	0.110000000002
5	14782	72.421870423978	0.103333333334
5	14928	72.630203757313	0.210000000002
5	14974	74.276372382152	0.101666666667
5	15013	74.479816826597	0.101666666667
5	15063	74.489816826599	0.111666666669
5	15312	75.906298852853	0.206666666668
5	15359	76.00796551952	0.105000000001
5	15479	76.648538981037	0.111666666669
5	15619	77.04687231437	0.205000000001
5	15716	77.564188173538	0.105000000001
5	15797	77.772521506873	0.110000000002
5	16089	79.431158002724	0.105000000001
5	16223	79.55087781242	0.111666666669
5	16335	79.736158002725	0.206666666668
6	225	8.518071070073	0.205000000001
6	266	8.61973773674	0.205000000001
6	301	8.787530990517	0.101666666667
6	352	8.990864323851	0.101666666667
6	390	8.994197657185	0.105000000001
6	584	9.357535960538	0.105000000001
6	665	9.560869293872	0.105000000001
6	877	10.161795656435	0.210000000002
6	959	10.360128989768	0.103333333334
6	1050	10.474258863028	0.103333333334
6	1181	10.779258863029	0.205000000001
6	1325	12.49597903295	0.210000000002
6	1450	12.897645699617	0.306666666668
6	1628	15.29786385798	0.205000000001
6	1700	15.399530524647	0.103333333334
6	1745	15.488808802914	0.105000000001
6	1793	15.5705856932	0.203333333334
6	1953	15.897142136249	0.208333333335
6	1981	15.97727458209	0.203355555556
6	2237	16.268732969841	0.205000000001
6	2312	16.370399636508	0.205000000001
6	2336	16.388941248759	0.208333333335
6	2387	17.762224741014	0.101666666667
6	2426	17.96558029657	0.101666666667
6	2461	17.970580296571	0.106666666668
6	2689	18.83804822	0.105000000001
6	2779	19.039714886667	0.103333333334
6	2820	20.482254479646	0.101666666667
6	2840	20.685621146313	0.1017
6	2958	20.890621146314	0.103333333334
6	3149	21.566932303386	0.105000000001
6	3457	21.975265636721	0.208333333335
6	3489	22.024588789984	0.103333333334
6	3491	22.024588789984	0.306666666668
6	3617	22.163254266877	0.210000000002
6	3723	22.463254266877	0.205000000001
6	3776	23.245059301479	0.101666666667
6	3842	23.390309162832	0.103333333334
6	3869	23.448414857035	0.101688888889
6	4115	23.655081523703	0.105000000001
6	4217	23.695309162833	0.205000000001
6	4264	23.760132605603	0.103333333334
6	4308	23.766799272271	0.211666666669
6	4465	25.485281643747	0.105000000001
6	4596	25.893614977082	0.208333333335
6	4638	26.126096201329	0.101666666667
6	4683	26.329485090218	0.101666666667
6	4721	26.332818423552	0.105000000001
6	4967	27.440903181591	0.210000000002
6	5047	27.639236514924	0.103333333334
6	5221	28.220875281781	0.210000000002
6	5372	28.520875281781	0.205000000001
6	5401	28.578553572357	0.103333333334
6	5606	28.985220239025	0.306666666668
6	5710	29.183744968921	0.210000000002
6	5792	29.382078302254	0.205000000001
6	5933	30.040652843214	0.206666666668
6	6021	30.243986176548	0.105000000001
6	6065	30.302488021042	0.105000000001
6	6204	30.504154687709	0.103333333334
6	6312	31.186485479746	0.103333333334
6	6402	31.38981881308	0.103333333334
6	6622	34.442429891773	0.210000000002
6	6706	34.640763225106	0.103333333334
6	6864	34.929569078375	0.205000000001
6	6929	35.095872784433	0.203333333334
6	6989	35.23790241171	0.208333333335
6	7090	35.502672784433	0.203333333334
6	7126	35.506006117767	0.206666666668
6	7338	36.281268898658	0.205000000001
6	7379	36.382935565325	0.205000000001
6	7465	36.898049492222	0.305000000001
6	7483	36.986859119579	0.106666666668
6	7595	37.186859119579	0.103333333334
6	7657	37.508149492223	0.3051
6	7842	38.119816158892	0.306666666668
6	8023	39.951300768475	0.103333333334
6	8025	39.951300768475	0.306666666668
6	8212	41.267114476064	0.105000000001
6	8314	41.463471997812	0.106666666668
6	8338	41.468781142731	0.103333333334
6	8523	41.769056690026	0.101666666667
6	8549	41.820011195228	0.101666666667
6	8571	41.87013866448	0.208333333335
6	8655	42.023433417451	0.101666666667
6	8696	42.026766750785	0.105000000001
6	8721	42.102440392332	0.203333333334
6	8839	42.509284836778	0.203511111112
6	9031	42.739090838136	0.205000000001
6	9126	42.917618170113	0.205000000001
6	9189	43.047424171471	0.208333333335
6	9229	43.625753611991	0.203333333334
6	9249	44.032598056437	0.203511111112
6	9405	44.440931389772	0.205000000001
6	9573	46.4399279639	0.205000000001
6	9615	46.541594630567	0.103333333334
6	9666	46.701122351289	0.305000000001
6	9722	47.311289017956	0.305166666666
6	9929	47.922955684625	0.306666666668
6	10038	48.546791961779	0.105000000001
6	10181	48.955125295114	0.208333333335
6	10286	49.739334399297	0.106666666668
6	10442	50.146001065965	0.208333333335
6	10651	52.0503250726	0.205000000001
6	10668	52.058658405935	0.315000000003
6	10792	53.448339061308	0.103333333334
6	10961	53.712930330297	0.106666666668
6	11050	53.855005727976	0.306666666668
6	11161	54.116263663631	0.205000000001
6	11322	54.580565020936	0.103333333334
6	11352	54.587231687604	0.211666666669
6	11419	56.352411851686	0.203333333334
6	11433	56.488527056494	0.203333333334
6	11515	56.75934518502	0.203333333334
6	11551	56.762678518354	0.206666666668
6	11753	58.0193826317	0.206666666668
6	11820	58.224382631701	0.208333333335
6	12084	61.397598112085	0.210000000002
6	12263	61.697598112085	0.205000000001
6	12291	61.755855718587	0.210000000002
6	12372	61.95418905192	0.103333333334
6	12514	63.167177456525	0.105000000001
6	12579	63.302322535743	0.203333333334
6	12600	63.370510789859	0.105000000001
6	12763	63.612118566937	0.103333333334
6	12790	63.709255869077	0.2036
6	12920	63.818785233605	0.208333333335
6	13050	64.120922535746	0.208333333335
6	13273	67.819111367016	0.105000000001
6	13431	67.947972245207	0.106666666668
6	13474	67.960264115811	0.210000000002
6	13507	68.020778033683	0.103333333334
6	13746	68.260264115811	0.205000000001
6	13768	68.351305578541	0.205000000001
6	13925	69.355894610845	0.210000000002
6	14008	69.554227944178	0.103333333334
6	14167	70.23264524821	0.210000000002
6	14292	70.634311914877	0.306666666668
6	14332	71.454905905262	0.101666666667
6	14381	71.658394794151	0.101666666667
6	14419	71.661728127485	0.105000000001
6	14592	72.111344155454	0.105000000001
6	14608	72.115092646199	0.101666666667
6	14680	72.318537090644	0.101777777778
6	14830	72.519677488789	0.208333333335
6	14859	72.525203757312	0.105000000001
6	15094	74.583150159931	0.103333333334
6	15124	74.589816826599	0.211666666669
6	15249	75.802965519519	0.103333333334
6	15388	76.10796551952	0.205000000001
6	15510	76.74687231437	0.210000000002
6	15618	77.04687231437	0.205000000001
6	15630	77.052165951315	0.203333333334
6	15659	77.459188173537	0.203688888888
6	15828	77.870854840206	0.208333333335
6	16175	79.531158002724	0.205000000001
6	16259	79.632824669391	0.103333333334
6	16301	79.649211145753	0.210000000002
7	232	8.51973773674	0.105000000001
7	243	8.521404403407	0.208333333335
7	455	9.095864323852	0.105000000001
7	464	9.097530990519	0.208333333335
7	637	9.460869293872	0.208333333335
7	692	9.620217486584	0.305000000001
7	698	9.646795656432	0.305000000001
7	727	9.670869293874	0.215000000003
7	900	10.256795656434	0.305000000001
7	942	10.27012898977	0.318333333337
7	1130	10.580925529696	0.210000000002
7	1182	10.779258863029	0.205000000001
7	1381	12.604312366285	0.318333333337
7	1428	12.79597903295	0.205000000001
7	1488	14.773775469578	0.305000000001
7	1633	15.299530524647	0.206666666668
7	1654	15.383808802913	0.305033333334
7	1781	15.504530524648	0.208333333335
7	2023	16.005475469584	0.31666666667
7	2091	16.082274582091	0.105000000001
7	2244	16.270399636508	0.105000000001
7	2255	16.272066303175	0.208333333335
7	2371	16.497274582094	0.31666666667
7	2514	18.070580296571	0.105000000001
7	2546	18.080580296573	0.21666666667
7	2598	18.326359331109	0.203333333334
7	2622	18.627890437342	0.203333333334
7	2636	18.733048219999	0.203355555556
7	2810	19.143048220001	0.206666666668
7	2830	20.583921146313	0.101666666667
7	2883	20.78728781298	0.101666666667
7	2929	20.792287812981	0.106666666668
7	2939	20.851865636717	0.305000000001
7	3089	21.461932303385	0.305066666667
7	3390	21.924588789984	0.206666666668
7	3569	22.083598970056	0.31666666667
7	3593	22.129588789985	0.208333333335
7	3679	22.271587600212	0.318333333337
7	3708	22.363254266877	0.105000000001
7	3752	22.880220273942	0.203333333334
7	3786	23.286975829498	0.203422222222
7	4007	23.553414857036	0.105000000001
7	4218	23.695309162833	0.205000000001
7	4290	23.765081523705	0.215000000003
7	4348	23.863465938937	0.206666666668
7	4366	23.873465938939	0.318333333337
7	4387	24.770148310412	0.305000000001
7	4415	25.380281643746	0.305133333333
7	4626	26.001948310417	0.31666666667
7	4632	26.024429534662	0.101666666667
7	4644	26.227818423551	0.101722222222
7	4780	26.434485090219	0.105000000001
7	4847	26.925636514921	0.305000000001
7	4988	27.53590318159	0.305000000001
7	5027	27.549236514926	0.318333333337
7	5156	28.068509127911	0.203333333334
7	5283	28.329208615116	0.318333333337
7	5320	28.420875281781	0.105000000001
7	5333	28.475220239023	0.203377777778
7	5551	28.883553572358	0.205000000001
7	5776	29.292078302256	0.318333333337
7	5793	29.382078302254	0.205000000001
7	5834	29.790754687707	0.203333333334
7	5927	30.038986176547	0.205000000001
7	5980	30.197488021041	0.2034
7	6109	30.35398617655	0.215000000003
7	6242	30.607488021043	0.206666666668
7	6248	30.676396590856	0.203333333334
7	6268	31.083152146412	0.203422222222
7	6447	31.494818813081	0.208333333335
7	6496	33.927029891771	0.305000000001
7	6643	34.537429891772	0.305000000001
7	6682	34.550763225108	0.318333333337
7	6826	34.829569078375	0.105000000001
7	7048	35.346235745045	0.31666666667
7	7085	35.406006117767	0.106666666668
7	7166	35.607672784434	0.105000000001
7	7345	36.282935565325	0.105000000001
7	7356	36.284602231992	0.208333333335
7	7567	37.096859119581	0.21666666667
7	7643	37.290192452913	0.206666666668
7	7721	37.614816158891	0.106666666668
7	7820	38.018149492225	0.205000000001
7	7986	39.851300768475	0.206666666668
7	8073	40.056300768476	0.208333333335
7	8131	40.958492253841	0.203333333334
7	8254	41.365447809397	0.203333333334
7	8291	41.370447809398	0.208333333335
7	8414	41.573471997814	0.21666666667
7	8495	41.718344528561	0.101666666667
7	8595	41.921766750784	0.101755555556
7	8643	41.978471997815	0.31666666667
7	8761	42.128433417452	0.105000000001
7	8930	42.614284836779	0.105000000001
7	8965	42.639090838136	0.105000000001
7	9127	42.917618170113	0.205000000001
7	9215	43.155757504806	0.31666666667
7	9313	44.139264723105	0.106666666668
7	9390	44.340931389772	0.105000000001
7	9578	46.441594630567	0.206666666668
7	9658	46.646594630568	0.208333333335
7	9715	47.174510996257	0.203333333334
7	9786	47.417955684624	0.106666666668
7	9897	47.821289017958	0.205000000001
7	9915	47.831525295109	0.305000000001
7	9985	48.441791961778	0.305266666668
7	10213	49.063458628449	0.31666666667
7	10340	49.849334399299	0.21666666667
7	10468	50.2543343993	0.31666666667
7	10603	51.948658405933	0.205000000001
7	10652	52.0503250726	0.205000000001
7	10703	52.938183505752	0.203333333334
7	10744	53.345005727974	0.203488888888
7	10995	53.753339061309	0.205000000001
7	11040	53.822930330299	0.21666666667
7	11138	54.016263663631	0.105000000001
7	11238	54.392587162721	0.203333333334
7	11376	54.68389835427	0.206666666668
7	11391	54.693898354272	0.318333333337
7	11507	56.662678518354	0.106666666668
7	11591	56.864345185021	0.105000000001
7	11746	58.017715965033	0.205000000001
7	11846	58.332715965036	0.31666666667
7	12008	61.240289051917	0.305000000001
7	12147	61.50593144542	0.318333333337
7	12209	61.597598112085	0.105000000001
7	12317	61.850855718586	0.305000000001
7	12356	61.864189051922	0.318333333337
7	12567	63.270510789859	0.208333333335
7	12660	63.480510789861	0.215000000003
7	12841	63.715451900271	0.206666666668
7	12901	63.814255869078	0.105000000001
7	12992	63.92711856694	0.31666666667
7	13076	64.229255869081	0.31666666667
7	13407	67.92244470035	0.208333333335
7	13584	68.057972245209	0.21666666667
7	13601	68.068597449146	0.318333333337
7	13616	68.124111367017	0.206666666668
7	13691	68.160264115811	0.105000000001
7	13769	68.351305578541	0.205000000001
7	13811	68.840294610842	0.305000000001
7	13948	69.450894610844	0.305000000001
7	13987	69.46422794418	0.318333333337
7	14223	70.340978581545	0.318333333337
7	14270	70.53264524821	0.205000000001
7	14320	71.353239238595	0.101666666667
7	14342	71.556728127484	0.101822222222
7	14480	71.763394794152	0.105000000001
7	14635	72.214677488788	0.208333333335
7	14793	72.423537090645	0.105000000001
7	14918	72.628010822124	0.31666666667
7	14939	72.635203757314	0.215000000003
7	15148	74.686483493265	0.206666666668
7	15163	74.696483493267	0.318333333337
7	15177	75.292676630629	0.203333333334
7	15201	75.699632186185	0.203622222222
7	15389	76.10796551952	0.205000000001
7	15570	76.855205647705	0.318333333337
7	15599	76.94687231437	0.105000000001
7	15717	77.564188173538	0.105000000001
7	15858	77.979188173541	0.31666666667
7	15874	78.239608371797	0.203333333334
7	16180	79.532824669391	0.206666666668
7	16342	79.737824669392	0.208333333335
7	16367	79.757544479088	0.318333333337
8	250	8.523071070074	0.210000000002
8	294	8.724737736741	0.310000000002
8	501	9.199197657186	0.208333333335
8	507	9.204197657187	0.315000000003
8	569	9.354202627204	0.101666666667
8	758	9.770869293874	0.315000000003
8	776	9.925217486585	0.305000000001
8	883	10.166795656436	0.215000000003
8	1080	10.568462323103	0.311666666669
8	1171	10.682592196363	0.311666666669
8	1191	10.78425886303	0.210000000002
8	1209	11.675979032946	0.305000000001
8	1237	12.285979032948	0.305000000001
8	1456	12.904312366285	0.313333333336
8	1646	15.302863857981	0.210000000002
8	1829	15.607863857982	0.311666666669
8	1869	15.697142136249	0.313333333336
8	1884	15.773919026534	0.203333333334
8	1959	15.90214213625	0.213333333336
8	2170	16.180607915424	0.203333333334
8	2206	16.187274582092	0.210000000002
8	2262	16.273732969842	0.210000000002
8	2359	16.475399636509	0.310000000002
8	2572	18.173913629905	0.208333333335
8	2585	18.180580296573	0.31666666667
8	2772	19.03804822	0.101666666667
8	2798	19.046381553335	0.313333333336
8	2979	20.893954479648	0.208333333335
8	3036	21.098954479649	0.311666666669
8	3071	21.343187600207	0.305000000001
8	3273	21.775265636721	0.313333333336
8	3412	21.953254266875	0.305066666667
8	3463	21.980265636722	0.213333333336
8	3518	22.031255456652	0.313333333336
8	3637	22.232922123319	0.311666666669
8	3741	22.568254266878	0.310000000002
8	3825	23.351777050046	0.101666666667
8	4016	23.555132605602	0.101688888889
8	4091	23.598642496167	0.311666666669
8	4122	23.65674819037	0.208333333335
8	4227	23.700309162834	0.210000000002
8	4253	23.758465938936	0.101666666667
8	4351	23.865081523705	0.315000000003
8	4401	25.075148310413	0.305000000001
8	4513	25.685281643747	0.305000000001
8	4542	25.693614977082	0.313333333336
8	4821	26.537818423553	0.208333333335
8	4827	26.542818423554	0.315000000003
8	4973	27.445903181592	0.215000000003
8	5107	27.847569848259	0.311666666669
8	5227	28.225875281782	0.215000000003
8	5384	28.566967191141	0.203333333334
8	5434	28.625875281782	0.310000000002
8	5532	28.786886905692	0.311666666669
8	5573	28.973744968919	0.203444444444
8	5616	28.991886905693	0.313333333336
8	5802	29.387078302255	0.210000000002
8	5940	30.045652843215	0.211666666669
8	6181	30.45398617655	0.315000000003
8	6197	30.502488021042	0.101666666667
8	6223	30.510821354377	0.313333333336
8	6428	31.394818813081	0.311666666669
8	6458	31.598152146415	0.311666666669
8	6600	34.419369078375	0.305000000001
8	6628	34.447429891774	0.215000000003
8	6841	34.849096558441	0.311666666669
8	6844	34.857371829051	0.305000000001
8	6888	35.029569078375	0.305000000001
8	6917	35.036235745043	0.311666666669
8	7175	35.609339451101	0.310000000002
8	7192	35.711006117768	0.208333333335
8	7363	36.286268898659	0.210000000002
8	7403	36.487935565326	0.310000000002
8	7586	37.185192452912	0.101666666667
8	7622	37.196859119581	0.31666666667
8	7743	37.716482825558	0.208333333335
8	7848	38.12648282556	0.313333333336
8	8052	39.957967435143	0.313333333336
8	8084	40.15963410181	0.311666666669
8	8197	41.26378114273	0.101666666667
8	8484	41.673471997814	0.31666666667
8	8492	41.678471997815	0.313024188418
8	8580	41.875138664481	0.213333333336
8	8800	42.228857504803	0.305000000001
8	8809	42.231766750786	0.208333333335
8	8815	42.236766750787	0.315000000003
8	9019	42.71928483678	0.210000000002
8	9083	42.839090838136	0.305000000001
8	9112	42.845757504804	0.311666666669
8	9136	42.922618170114	0.210000000002
8	9360	44.240931389772	0.208333333335
8	9423	44.545931389773	0.310000000002
8	9591	46.444927963901	0.210000000002
8	9676	46.749927963902	0.311666666669
8	9808	47.519622351291	0.208333333335
8	9935	47.929622351293	0.313333333336
8	9957	48.13652529511	0.305000000001
8	9963	48.171701439491	0.305000000001
8	10090	48.746791961779	0.305000000001
8	10119	48.755125295114	0.313333333336
8	10387	49.949334399299	0.31666666667
8	10448	50.151001065966	0.213333333336
8	10661	52.055325072601	0.210000000002
8	10674	52.063658405936	0.320000000004
8	10941	53.656672394643	0.311666666669
8	11056	53.861672394644	0.313333333336
8	11102	53.922930330299	0.31666666667
8	11174	54.172165020935	0.101666666667
8	11192	54.221263663632	0.310000000002
8	11205	54.375565020935	0.101733333333
8	11315	54.578898354269	0.101666666667
8	11600	56.866011851688	0.310000000002
8	11617	56.967678518355	0.208333333335
8	11641	57.609160409476	0.203333333334
8	11721	58.016049298366	0.203333333334
8	11763	58.024382631701	0.211666666669
8	11864	60.577231445415	0.305000000001
8	11940	61.042379192142	0.305000000001
8	11966	61.187598112083	0.305366666667
8	12297	61.760855718588	0.215000000003
8	12314	61.802598112086	0.310000000002
8	12422	62.162522385255	0.311666666669
8	12499	63.163844123191	0.101666666667
8	12666	63.505655869077	0.203333333334
8	12718	63.580510789861	0.315000000003
8	12734	63.61045190027	0.101666666667
8	12927	63.823785233606	0.213333333336
8	12940	63.912589202411	0.203333333334
8	12985	63.919255869079	0.210000000002
8	13110	67.139864115808	0.305000000001
8	13223	67.750264115809	0.3054
8	13500	68.019111367016	0.101666666667
8	13526	68.027444700351	0.313333333336
8	13677	68.157972245209	0.31666666667
8	13778	68.356305578542	0.210000000002
8	13787	68.365264115812	0.310000000002
8	13931	69.360894610846	0.215000000003
8	13942	69.412378581539	0.305000000001
8	14068	69.762561277513	0.311666666669
8	14079	70.022645248208	0.305266666668
8	14298	70.640978581545	0.313333333336
8	14521	71.866728127486	0.208333333335
8	14527	71.871728127487	0.315000000003
8	14704	72.319677488789	0.313333333336
8	14853	72.52467748879	0.213333333336
8	14869	72.526870423979	0.208333333335
8	14958	72.735203757314	0.315000000003
8	14968	74.174705715485	0.101666666667
8	14980	74.37815015993	0.101777777778
8	15087	74.581483493264	0.101666666667
8	15374	76.011298852854	0.311666666669
8	15398	76.112965519521	0.210000000002
8	15516	76.751872314371	0.215000000003
8	15642	77.151872314371	0.310000000002
8	15649	77.255499284649	0.203333333334
8	15730	77.662521506871	0.203333333334
8	15766	77.669188173539	0.210000000002
8	16194	79.536158002725	0.210000000002
8	16308	79.654211145754	0.215000000003
8	16384	79.841158002726	0.311666666669
9	259	8.618071070073	0.305000000001
9	288	8.71973773674	0.305000000001
9	418	9.049202627203	0.203333333334
9	433	9.092530990518	0.101666666667
9	447	9.094197657185	0.205000000001
9	606	9.455869293871	0.203333333334
9	631	9.457535960538	0.205000000001
9	923	10.258462323101	0.306666666668
9	1018	10.460128989768	0.203333333334
9	1086	10.574258863028	0.203333333334
9	1194	10.879258863029	0.305000000001
9	1365	12.592645699616	0.306666666668
9	1459	12.997645699617	0.406666666668
9	1691	15.39786385798	0.305000000001
9	1768	15.499530524647	0.203333333334
9	1806	15.588808802914	0.205000000001
9	2014	15.993808802915	0.305000000001
9	2073	16.078941248757	0.101666666667
9	2102	16.129252142406	0.305000000001
9	2305	16.368732969841	0.305000000001
9	2353	16.470399636508	0.305000000001
9	2362	16.485607915425	0.305000000001
9	2381	17.660558074347	0.101666666667
9	2393	17.863913629903	0.101688888889
9	2497	18.067246963237	0.101666666667
9	2738	18.93804822	0.205000000001
9	2803	19.139714886667	0.203333333334
9	2884	20.78728781298	0.101666666667
9	3001	20.990621146314	0.203333333334
9	3187	21.666932303386	0.205000000001
9	3560	22.071932303387	0.305000000001
9	3577	22.124588789984	0.406666666668
9	3581	22.126255456651	0.205000000001
9	3665	22.259920933543	0.306666666668
9	3735	22.563254266877	0.305000000001
9	3819	23.346725968146	0.101666666667
9	3911	23.490309162832	0.203333333334
9	3967	23.550081523702	0.101666666667
9	3998	23.551748190369	0.103333333334
9	4323	23.795309162833	0.305000000001
9	4338	23.860132605603	0.203333333334
9	4362	23.866799272271	0.311666666669
9	4493	25.585281643747	0.205000000001
9	4617	25.990281643748	0.305000000001
9	4758	26.431151756885	0.101666666667
9	4772	26.432818423552	0.205000000001
9	5011	27.537569848257	0.306666666668
9	5079	27.739236514924	0.203333333334
9	5269	28.317541948447	0.306666666668
9	5428	28.620875281781	0.305000000001
9	5444	28.678553572357	0.203333333334
9	5646	29.085220239025	0.406666666668
9	5750	29.280411635587	0.306666666668
9	5809	29.482078302254	0.305000000001
9	5812	29.528886176546	0.305000000001
9	5947	30.138986176547	0.305000000001
9	5969	30.140652843214	0.306666666668
9	6143	30.402488021042	0.205000000001
9	6235	30.604154687709	0.203333333334
9	6342	31.286485479746	0.203333333334
9	6434	31.48981881308	0.203333333334
9	6666	34.539096558439	0.306666666668
9	6773	34.740763225106	0.203333333334
9	6889	35.029569078375	0.305000000001
9	6970	35.162371829052	0.305000000001
9	7039	35.334569078376	0.305000000001
9	7144	35.6043394511	0.101666666667
9	7158	35.606006117767	0.306666666668
9	7372	36.381268898658	0.305000000001
9	7391	36.473436897355	0.203333333334
9	7397	36.482935565325	0.305000000001
9	7432	36.880192452911	0.203422222222
9	7633	37.286859119579	0.203333333334
9	7697	37.60981615889	0.101666666667
9	7851	38.219816158892	0.406666666668
9	8057	40.051300768475	0.406666666668
9	8061	40.052967435142	0.205000000001
9	8107	40.746605331144	0.305000000001
9	8224	41.356805331144	0.305199999999
9	8281	41.367114476064	0.205000000001
9	8396	41.568781142731	0.203333333334
9	8574	41.870723356693	0.101666666667
9	8634	41.966805331146	0.305000000001
9	8736	42.125100084118	0.101666666667
9	8750	42.126766750785	0.205000000001
9	8912	42.610951503445	0.101666666667
9	9084	42.839090838136	0.305000000001
9	9174	43.017618170113	0.305000000001
9	9206	43.144090838137	0.305000000001
9	9289	44.134264723104	0.101666666667
9	9417	44.540931389772	0.305000000001
9	9606	46.5399279639	0.305000000001
9	9645	46.641594630567	0.203333333334
9	9762	47.412955684623	0.101666666667
9	9946	48.022955684625	0.406666666668
9	10018	48.476701439492	0.305000000001
9	10066	48.646791961779	0.205000000001
9	10198	49.022434399296	0.305000000001
9	10204	49.05179196178	0.305000000001
9	10241	49.632667732629	0.305233333332
9	10459	50.242667732631	0.305000000001
9	10677	52.1503250726	0.305000000001
9	10680	52.158658405935	0.415000000003
9	10709	52.995963663627	0.305000000001
9	10826	53.548339061308	0.203333333334
9	10876	53.606263663629	0.305300000001
9	11105	53.955005727976	0.406666666668
9	11186	54.216263663631	0.305000000001
9	11369	54.680565020936	0.203333333334
9	11387	54.687231687604	0.311666666669
9	11569	56.861011851687	0.101666666667
9	11583	56.862678518354	0.306666666668
9	11777	58.1193826317	0.306666666668
9	11837	58.321049298367	0.305000000001
9	12133	61.494264778751	0.306666666668
9	12308	61.797598112085	0.305000000001
9	12340	61.852522385253	0.306666666668
9	12398	62.05418905192	0.203333333334
9	12443	62.858666345412	0.203333333334
9	12536	63.265510789858	0.203333333334
9	12561	63.267177456525	0.205000000001
9	12821	63.712118566937	0.203333333334
9	12880	63.810922535744	0.101666666667
9	12970	63.915451900271	0.305000000001
9	13067	64.217589202412	0.305000000001
9	13120	67.230905578538	0.305000000001
9	13294	67.841305578539	0.3054
9	13394	67.919111367016	0.205000000001
9	13580	68.056930782477	0.306666666668
9	13609	68.120778033683	0.203333333334
9	13781	68.360264115811	0.305000000001
9	13794	68.451305578541	0.305000000001
9	13971	69.452561277511	0.306666666668
9	14038	69.654227944178	0.203333333334
9	14207	70.329311914876	0.306666666668
9	14301	70.734311914877	0.406666666668
9	14458	71.760061460818	0.101666666667
9	14472	71.761728127485	0.205000000001
9	14626	72.211344155454	0.205000000001
9	14641	72.216759312866	0.101666666667
9	14746	72.420203757311	0.101666666667
9	14780	72.421870423978	0.103333333334
9	14898	72.616344155455	0.305000000001
9	15141	74.683150159931	0.203333333334
9	15159	74.689816826599	0.311666666669
9	15283	75.902965519519	0.203333333334
9	15405	76.20796551952	0.305000000001
9	15552	76.843538981036	0.306666666668
9	15636	77.14687231437	0.305000000001
9	15699	77.560854840204	0.101666666667
9	15849	77.967521506872	0.305000000001
9	16250	79.631158002724	0.305000000001
9	16328	79.732824669391	0.203333333334
9	16354	79.745877812419	0.306666666668

