version 2
run General-28-20190529-16:33:03-9096
attr configname General
attr datetime 20190529-16:33:03
attr experiment General
attr inifile omnetpp.ini
attr iterationvars ""
attr iterationvarsf ""
attr measurement ""
attr network networks.Net5
attr processid 9096
attr repetition 28
attr replication #28
attr resultdir results
attr runnumber 28
attr seedset 28
param **.appType "\"App\""
param **.app.packetLength "1500 bytes"
param **.app.totalNodes 3
param **.destAddresses "\"0\""
param **.sendIaTime "uniform(5s, 10s)"
param **.sendIaTimeEvil 10ms

vector 0 Net5.rte[0].app endToEndDelay:vector ETV
attr interpolationmode none
attr title "end-to-end delay of arrived packets, vector"
attr unit s
vector 1 Net5.rte[1].app endToEndDelay:vector ETV
attr interpolationmode none
attr title "end-to-end delay of arrived packets, vector"
attr unit s
vector 2 Net5.rte[2].app endToEndDelay:vector ETV
attr interpolationmode none
attr title "end-to-end delay of arrived packets, vector"
attr unit s
0	7	5.955782144663	0.101666666667
0	19	6.159115477997	0.101666666667
0	48	6.362448811331	0.101666666667
0	56	7.907864673396	0.101666666667
0	68	8.11119800673	0.101666666667
0	97	8.314531340064	0.101666666667
0	111	8.84840203958	0.101666666667
0	131	9.051757595136	0.101666666667
0	141	9.053424261803	0.103333333334
0	154	11.77701855391	0.101666666667
0	166	11.980374109466	0.101688888889
0	195	12.1837074428	0.101666666667
0	232	14.883448981913	0.101666666667
0	246	18.52164431984	0.101666666667
0	263	21.229502757413	0.101666666667
0	295	21.432880535191	0.101711111111
1	13	6.05744881133	0.101666666667
1	33	6.260782144664	0.101666666667
1	43	6.262448811331	0.103333333334
1	83	8.212864673397	0.101666666667
1	98	8.314531340064	0.101666666667
1	105	8.746735372913	0.101666666667
1	117	8.950090928469	0.101688888889
1	146	9.153424261803	0.101666666667
1	160	11.878685220577	0.101666666667
1	180	12.082040776133	0.101666666667
1	190	12.0837074428	0.103333333334
1	203	14.476771204134	0.101666666667
1	215	14.680115648579	0.101677777778
1	233	14.883448981913	0.101666666667
1	240	18.419977653173	0.101666666667
1	279	21.33116942408	0.101666666667
1	319	21.534547201858	0.101666666667
1	323	21.536213868525	0.103333333334
1	356	21.74116942408	0.101666666667
2	34	6.260782144664	0.101666666667
2	49	6.362448811331	0.101666666667
2	62	8.009531340063	0.101666666667
2	82	8.212864673397	0.101666666667
2	92	8.214531340064	0.103333333334
2	132	9.051757595136	0.101666666667
2	147	9.153424261803	0.101666666667
2	181	12.082040776133	0.101666666667
2	196	12.1837074428	0.101666666667
2	209	14.578437870801	0.101666666667
2	221	14.781782315246	0.101666666667
2	320	21.534547201858	0.101666666667
2	340	21.639502757413	0.101666666667
2	372	21.842880535191	0.101711111111

