version 2
run General-17-20190529-16:32:58-18428
attr configname General
attr datetime 20190529-16:32:58
attr experiment General
attr inifile omnetpp.ini
attr iterationvars ""
attr iterationvarsf ""
attr measurement ""
attr network networks.Net5
attr processid 18428
attr repetition 17
attr replication #17
attr resultdir results
attr runnumber 17
attr seedset 17
param **.appType "\"App\""
param **.app.packetLength "1500 bytes"
param **.app.totalNodes 3
param **.destAddresses "\"0\""
param **.sendIaTime "uniform(5s, 10s)"
param **.sendIaTimeEvil 10ms

vector 0 Net5.rte[2].app endToEndDelay:vector ETV
attr interpolationmode none
attr title "end-to-end delay of arrived packets, vector"
attr unit s
vector 1 Net5.rte[1].app endToEndDelay:vector ETV
attr interpolationmode none
attr title "end-to-end delay of arrived packets, vector"
attr unit s
vector 2 Net5.rte[0].app endToEndDelay:vector ETV
attr interpolationmode none
attr title "end-to-end delay of arrived packets, vector"
attr unit s
0	7	6.010555525643	0.101666666667
0	19	6.213888858977	0.101666666667
0	49	6.417222192311	0.101666666667
0	83	6.879991690794	0.101666666667
0	98	6.981658357461	0.101666666667
0	111	7.856267097373	0.101666666667
0	131	8.059611541818	0.101666666667
0	141	8.061278208485	0.103333333334
0	160	13.953772092205	0.101666666667
0	180	14.157127647761	0.101666666667
0	190	14.158794314428	0.103333333334
0	213	15.509919001122	0.101666666667
0	228	15.713274556678	0.101688888889
0	258	15.916607890012	0.101666666667
0	271	19.149086657413	0.101666666667
0	283	19.352464435191	0.101666666667
0	302	20.68148496757	0.101666666667
0	314	20.884851634237	0.1017
0	344	21.088184967571	0.101666666667
0	418	25.488340030691	0.101666666667
0	438	25.593295586246	0.101666666667
0	470	25.796673364024	0.101711111111
1	13	6.11222219231	0.101666666667
1	33	6.315555525644	0.101666666667
1	43	6.317222192311	0.103333333334
1	56	6.574991690793	0.101666666667
1	68	6.778325024127	0.101666666667
1	97	6.981658357461	0.101666666667
1	132	8.059611541818	0.101666666667
1	147	8.161278208485	0.101666666667
1	154	13.852105425538	0.101666666667
1	166	14.055460981094	0.101688888889
1	196	14.258794314428	0.101666666667
1	219	15.556546334842	0.101666666667
1	243	15.814941223345	0.101666666667
1	257	15.916607890012	0.101666666667
1	265	19.047419990746	0.101666666667
1	277	19.250797768524	0.101711111111
1	295	19.454131101858	0.101666666667
1	329	20.986518300904	0.101666666667
1	343	21.088184967571	0.101666666667
1	377	25.284962252913	0.101666666667
1	417	25.488340030691	0.101666666667
1	421	25.490006697358	0.103333333334
1	454	25.694962252913	0.101666666667
2	34	6.315555525644	0.101666666667
2	48	6.417222192311	0.101666666667
2	62	6.67665835746	0.101666666667
2	82	6.879991690794	0.101666666667
2	92	6.881658357461	0.103333333334
2	105	7.754600430706	0.101666666667
2	117	7.957944875151	0.101677777778
2	146	8.161278208485	0.101666666667
2	181	14.157127647761	0.101666666667
2	195	14.258794314428	0.101666666667
2	207	15.454879668175	0.101666666667
2	222	15.611585667789	0.101666666667
2	242	15.814941223345	0.101666666667
2	252	15.816607890012	0.103333333334
2	294	19.454131101858	0.101666666667
2	308	20.783151634237	0.101666666667
2	328	20.986518300904	0.101666666667
2	338	20.988184967571	0.103333333334
2	361	25.183295586246	0.101666666667
2	393	25.386673364024	0.101711111111

