version 2
run General-48-20190529-16:33:11-20420
attr configname General
attr datetime 20190529-16:33:11
attr experiment General
attr inifile omnetpp.ini
attr iterationvars ""
attr iterationvarsf ""
attr measurement ""
attr network networks.Net5
attr processid 20420
attr repetition 48
attr replication #48
attr resultdir results
attr runnumber 48
attr seedset 48
param **.appType "\"App\""
param **.app.packetLength "1500 bytes"
param **.app.totalNodes 3
param **.destAddresses "\"0\""
param **.sendIaTime "uniform(5s, 10s)"
param **.sendIaTimeEvil 10ms

vector 0 Net5.rte[2].app endToEndDelay:vector ETV
attr interpolationmode none
attr title "end-to-end delay of arrived packets, vector"
attr unit s
vector 1 Net5.rte[0].app endToEndDelay:vector ETV
attr interpolationmode none
attr title "end-to-end delay of arrived packets, vector"
attr unit s
vector 2 Net5.rte[1].app endToEndDelay:vector ETV
attr interpolationmode none
attr title "end-to-end delay of arrived packets, vector"
attr unit s
0	7	5.189118005435	0.101666666667
0	19	5.392451338769	0.101666666667
0	49	5.595784672103	0.101666666667
0	83	7.539085477756	0.101666666667
0	98	7.640752144423	0.101666666667
0	111	9.661199679099	0.101666666667
0	131	9.864544123544	0.101666666667
0	141	9.866210790211	0.103333333334
0	158	14.14928927981	0.101666666667
0	164	14.215737502888	0.101666666667
0	179	14.352644835366	0.101688888889
0	209	14.5559781687	0.101666666667
0	222	16.898762819324	0.101666666667
0	242	17.102129485991	0.101666666667
0	252	17.103796152658	0.103333333334
0	295	21.341849248324	0.101666666667
0	312	22.882750673086	0.101666666667
0	344	23.086128450864	0.101711111111
1	13	5.290784672102	0.101666666667
1	33	5.494118005436	0.101666666667
1	43	5.495784672103	0.103333333334
1	56	7.234085477755	0.101666666667
1	68	7.437418811089	0.101666666667
1	97	7.640752144423	0.101666666667
1	132	9.864544123544	0.101666666667
1	146	9.966210790211	0.101666666667
1	170	14.250955946477	0.101666666667
1	193	14.454311502033	0.101666666667
1	203	14.4559781687	0.103333333334
1	243	17.102129485991	0.101666666667
1	257	17.203796152658	0.101666666667
1	271	21.03681591499	0.101666666667
1	283	21.240182581657	0.101666666667
1	369	23.187795117531	0.101666666667
1	389	23.292750673086	0.101666666667
1	421	23.496128450864	0.101711111111
2	34	5.494118005436	0.101666666667
2	48	5.595784672103	0.101666666667
2	62	7.335752144422	0.101666666667
2	82	7.539085477756	0.101666666667
2	92	7.540752144423	0.103333333334
2	105	9.559533012432	0.101666666667
2	117	9.762877456877	0.101677777778
2	147	9.966210790211	0.101666666667
2	176	14.317404169555	0.101666666667
2	194	14.454311502033	0.101666666667
2	208	14.5559781687	0.101666666667
2	216	16.797096152657	0.101666666667
2	228	17.000462819324	0.1017
2	258	17.203796152658	0.101666666667
2	265	20.935149248323	0.101666666667
2	277	21.13851591499	0.1017
2	294	21.341849248324	0.101666666667
2	328	22.984417339753	0.101666666667
2	368	23.187795117531	0.101666666667
2	372	23.189461784198	0.103333333334
2	405	23.394417339753	0.101666666667

