version 2
run General-4-20190527-17:58:50-13792
attr configname General
attr datetime 20190527-17:58:50
attr experiment General
attr inifile omnetpp.ini
attr iterationvars ""
attr iterationvarsf ""
attr measurement ""
attr network networks.Net5
attr processid 13792
attr repetition 4
attr replication #4
attr resultdir results
attr runnumber 4
attr seedset 4
param **.appType "\"App\""
param **.app.packetLength "1500 bytes"
param **.app.totalNodes 50
param **.destAddresses "\"0\""
param **.sendIaTime "uniform(5s, 10s)"
param **.sendIaTimeEvil "uniform(1ms, 10ms)"

vector 0 Net5.rte[32].app endToEndDelay:vector ETV
attr interpolationmode none
attr title "end-to-end delay of arrived packets, vector"
attr unit s
vector 1 Net5.rte[17].app endToEndDelay:vector ETV
attr interpolationmode none
attr title "end-to-end delay of arrived packets, vector"
attr unit s
vector 2 Net5.rte[48].app endToEndDelay:vector ETV
attr interpolationmode none
attr title "end-to-end delay of arrived packets, vector"
attr unit s
vector 3 Net5.rte[34].app endToEndDelay:vector ETV
attr interpolationmode none
attr title "end-to-end delay of arrived packets, vector"
attr unit s
vector 4 Net5.rte[25].app endToEndDelay:vector ETV
attr interpolationmode none
attr title "end-to-end delay of arrived packets, vector"
attr unit s
vector 5 Net5.rte[3].app endToEndDelay:vector ETV
attr interpolationmode none
attr title "end-to-end delay of arrived packets, vector"
attr unit s
vector 6 Net5.rte[36].app endToEndDelay:vector ETV
attr interpolationmode none
attr title "end-to-end delay of arrived packets, vector"
attr unit s
vector 7 Net5.rte[21].app endToEndDelay:vector ETV
attr interpolationmode none
attr title "end-to-end delay of arrived packets, vector"
attr unit s
vector 8 Net5.rte[41].app endToEndDelay:vector ETV
attr interpolationmode none
attr title "end-to-end delay of arrived packets, vector"
attr unit s
vector 9 Net5.rte[43].app endToEndDelay:vector ETV
attr interpolationmode none
attr title "end-to-end delay of arrived packets, vector"
attr unit s
vector 10 Net5.rte[30].app endToEndDelay:vector ETV
attr interpolationmode none
attr title "end-to-end delay of arrived packets, vector"
attr unit s
vector 11 Net5.rte[11].app endToEndDelay:vector ETV
attr interpolationmode none
attr title "end-to-end delay of arrived packets, vector"
attr unit s
vector 12 Net5.rte[4].app endToEndDelay:vector ETV
attr interpolationmode none
attr title "end-to-end delay of arrived packets, vector"
attr unit s
vector 13 Net5.rte[44].app endToEndDelay:vector ETV
attr interpolationmode none
attr title "end-to-end delay of arrived packets, vector"
attr unit s
vector 14 Net5.rte[16].app endToEndDelay:vector ETV
attr interpolationmode none
attr title "end-to-end delay of arrived packets, vector"
attr unit s
vector 15 Net5.rte[18].app endToEndDelay:vector ETV
attr interpolationmode none
attr title "end-to-end delay of arrived packets, vector"
attr unit s
vector 16 Net5.rte[26].app endToEndDelay:vector ETV
attr interpolationmode none
attr title "end-to-end delay of arrived packets, vector"
attr unit s
vector 17 Net5.rte[29].app endToEndDelay:vector ETV
attr interpolationmode none
attr title "end-to-end delay of arrived packets, vector"
attr unit s
vector 18 Net5.rte[28].app endToEndDelay:vector ETV
attr interpolationmode none
attr title "end-to-end delay of arrived packets, vector"
attr unit s
vector 19 Net5.rte[0].app endToEndDelay:vector ETV
attr interpolationmode none
attr title "end-to-end delay of arrived packets, vector"
attr unit s
vector 20 Net5.rte[8].app endToEndDelay:vector ETV
attr interpolationmode none
attr title "end-to-end delay of arrived packets, vector"
attr unit s
vector 21 Net5.rte[14].app endToEndDelay:vector ETV
attr interpolationmode none
attr title "end-to-end delay of arrived packets, vector"
attr unit s
vector 22 Net5.rte[10].app endToEndDelay:vector ETV
attr interpolationmode none
attr title "end-to-end delay of arrived packets, vector"
attr unit s
vector 23 Net5.rte[13].app endToEndDelay:vector ETV
attr interpolationmode none
attr title "end-to-end delay of arrived packets, vector"
attr unit s
vector 24 Net5.rte[19].app endToEndDelay:vector ETV
attr interpolationmode none
attr title "end-to-end delay of arrived packets, vector"
attr unit s
vector 25 Net5.rte[47].app endToEndDelay:vector ETV
attr interpolationmode none
attr title "end-to-end delay of arrived packets, vector"
attr unit s
vector 26 Net5.rte[15].app endToEndDelay:vector ETV
attr interpolationmode none
attr title "end-to-end delay of arrived packets, vector"
attr unit s
vector 27 Net5.rte[22].app endToEndDelay:vector ETV
attr interpolationmode none
attr title "end-to-end delay of arrived packets, vector"
attr unit s
vector 28 Net5.rte[23].app endToEndDelay:vector ETV
attr interpolationmode none
attr title "end-to-end delay of arrived packets, vector"
attr unit s
vector 29 Net5.rte[24].app endToEndDelay:vector ETV
attr interpolationmode none
attr title "end-to-end delay of arrived packets, vector"
attr unit s
vector 30 Net5.rte[20].app endToEndDelay:vector ETV
attr interpolationmode none
attr title "end-to-end delay of arrived packets, vector"
attr unit s
vector 31 Net5.rte[33].app endToEndDelay:vector ETV
attr interpolationmode none
attr title "end-to-end delay of arrived packets, vector"
attr unit s
vector 32 Net5.rte[37].app endToEndDelay:vector ETV
attr interpolationmode none
attr title "end-to-end delay of arrived packets, vector"
attr unit s
vector 33 Net5.rte[38].app endToEndDelay:vector ETV
attr interpolationmode none
attr title "end-to-end delay of arrived packets, vector"
attr unit s
vector 34 Net5.rte[49].app endToEndDelay:vector ETV
attr interpolationmode none
attr title "end-to-end delay of arrived packets, vector"
attr unit s
vector 35 Net5.rte[2].app endToEndDelay:vector ETV
attr interpolationmode none
attr title "end-to-end delay of arrived packets, vector"
attr unit s
vector 36 Net5.rte[7].app endToEndDelay:vector ETV
attr interpolationmode none
attr title "end-to-end delay of arrived packets, vector"
attr unit s
vector 37 Net5.rte[39].app endToEndDelay:vector ETV
attr interpolationmode none
attr title "end-to-end delay of arrived packets, vector"
attr unit s
vector 38 Net5.rte[6].app endToEndDelay:vector ETV
attr interpolationmode none
attr title "end-to-end delay of arrived packets, vector"
attr unit s
vector 39 Net5.rte[9].app endToEndDelay:vector ETV
attr interpolationmode none
attr title "end-to-end delay of arrived packets, vector"
attr unit s
vector 40 Net5.rte[12].app endToEndDelay:vector ETV
attr interpolationmode none
attr title "end-to-end delay of arrived packets, vector"
attr unit s
vector 41 Net5.rte[40].app endToEndDelay:vector ETV
attr interpolationmode none
attr title "end-to-end delay of arrived packets, vector"
attr unit s
vector 42 Net5.rte[31].app endToEndDelay:vector ETV
attr interpolationmode none
attr title "end-to-end delay of arrived packets, vector"
attr unit s
vector 43 Net5.rte[35].app endToEndDelay:vector ETV
attr interpolationmode none
attr title "end-to-end delay of arrived packets, vector"
attr unit s
vector 44 Net5.rte[45].app endToEndDelay:vector ETV
attr interpolationmode none
attr title "end-to-end delay of arrived packets, vector"
attr unit s
vector 45 Net5.rte[42].app endToEndDelay:vector ETV
attr interpolationmode none
attr title "end-to-end delay of arrived packets, vector"
attr unit s
vector 46 Net5.rte[46].app endToEndDelay:vector ETV
attr interpolationmode none
attr title "end-to-end delay of arrived packets, vector"
attr unit s
vector 47 Net5.rte[1].app endToEndDelay:vector ETV
attr interpolationmode none
attr title "end-to-end delay of arrived packets, vector"
attr unit s
vector 48 Net5.rte[27].app endToEndDelay:vector ETV
attr interpolationmode none
attr title "end-to-end delay of arrived packets, vector"
attr unit s
vector 49 Net5.rte[5].app endToEndDelay:vector ETV
attr interpolationmode none
attr title "end-to-end delay of arrived packets, vector"
attr unit s
0	67	5.33079574939	0.305000000001
0	365	5.85826380584	0.406666666668
0	1028	6.049133601337	0.218333333337
0	1965	6.22679037236	0.21666666667
0	2998	6.340568476893	0.226666666672
0	4157	6.46413360134	0.430000000006
0	5939	6.640654197652	0.323333333338
0	6166	6.671597139176	0.406666666668
0	6456	6.701597139182	0.436666666674
0	7039	6.748457039031	0.43333333334
0	7047	6.750123705698	0.331221895476
0	7797	6.837320864318	0.31666666667
0	8080	6.874484618271	0.318333333337
0	8999	6.950654197654	0.21666666667
0	10665	7.10327491696	0.321666666671
0	11691	7.206578471722	0.331666666673
0	12157	7.267320864324	0.330000000006
0	12717	7.304941583627	0.218333333337
0	13428	7.393245138386	0.315000000003
0	14096	7.50281795161	0.438333333341
0	14229	7.53509202534	0.326666666672
0	15162	7.689035582579	0.441666666675
0	16173	7.880702249244	0.328333333339
0	16322	7.945092025342	0.330000000006
0	17849	8.176223076951	0.328333333339
0	18168	8.207164310435	0.33333333334
0	18330	8.255859484861	0.228333333339
0	18805	8.293830977099	0.115000000003
0	20099	8.58788974362	0.435000000007
0	20399	8.659192818195	0.225000000005
0	23450	8.986844657246	0.331666666673
0	23707	9.00262671599	0.330000000006
0	23920	9.03239990968	0.326666666672
0	24295	9.075079336141	0.318333333337
0	24325	9.076746002808	0.218234678901
0	24721	9.100960049323	0.225000000005
0	26268	9.276161266229	0.320000000004
0	28041	9.471271316159	0.336666666674
0	28161	9.479494599563	0.11666666667
0	29642	9.62367745502	0.220000000004
0	29731	9.637399909681	0.423333333338
0	30491	9.705079336147	0.440000000008
0	32538	9.864863254587	0.323333333338
0	32826	9.881271316161	0.441666666675
0	34233	9.996999411569	0.331666666673
0	34725	10.037570409389	0.21666666667
0	34741	10.038812308018	0.326666666672
0	34768	10.040478974685	0.331801519668
0	35301	10.081529921257	0.336666666674
0	35412	10.095332744902	0.226666666672
0	35925	10.14034412169	0.217773712304
0	37162	10.262570409394	0.21666666667
0	37614	10.335478974684	0.21666666667
0	38379	10.472570409396	0.325000000005
0	39430	10.611620388365	0.218333333337
0	39758	10.642003366868	0.115000000003
0	40273	10.726438057705	0.228333333339
0	42169	10.931620388369	0.335000000007
0	43005	11.041440606827	0.318333333337
0	43018	11.042003366868	0.311666666669
0	43544	11.086849191796	0.336666666674
0	44577	11.275182525127	0.220000000004
0	44838	11.363104724379	0.458333333345
0	45759	11.693812308029	0.423333333338
0	46640	12.035478974704	0.256666666678
0	47768	12.348418848108	0.443333333342
1	81	5.400123705688	0.305000000001
1	606	6.01012370569	0.305000000001
1	968	6.042466934669	0.211666666669
1	3093	6.349133601337	0.315000000003
1	3763	6.428901810224	0.315000000003
1	4766	6.53065419765	0.213333333336
1	5300	6.576597139177	0.311666666669
1	5761	6.633457039028	0.318333333337
1	6936	6.740568476893	0.321666666671
1	8053	6.867817951603	0.311666666669
1	8288	6.883263805845	0.211666666669
1	8915	6.942320864319	0.208333333335
1	9031	6.957320864322	0.436666666674
1	10883	7.155654197655	0.218333333337
1	11222	7.186578471718	0.108333333335
1	11534	7.196608250292	0.415000000003
1	11549	7.198245138387	0.323333333338
1	12630	7.298274916959	0.211666666669
1	13896	7.470702249242	0.223333333338
1	13977	7.481151284939	0.41666666667
1	14217	7.531758692006	0.323333333338
1	15288	7.73509202534	0.120000000004
1	16004	7.870702249242	0.318333333337
1	17274	8.08216431043	0.208333333335
1	17513	8.144192818192	0.11666666667
1	17738	8.159556410281	0.311666666669
1	19592	8.464556410282	0.311666666669
1	19756	8.492164310432	0.313333333336
1	20879	8.749192818193	0.315000000003
1	21191	8.776844657244	0.121666666671
1	22395	8.892626715988	0.220000000004
1	23146	8.971844657243	0.113333333336
1	23908	9.029066576346	0.323333333338
1	24166	9.068412669473	0.311666666669
1	24605	9.090960049321	0.215000000003
1	27062	9.372827932895	0.41666666667
1	28032	9.471161266228	0.108333333335
1	28950	9.549604649488	0.415000000003
1	29380	9.58674600281	0.321666666671
1	29720	9.634066576347	0.420000000004
1	30012	9.662937982824	0.223333333338
1	30649	9.712010788351	0.308333333335
1	30815	9.719225964941	0.101666666667
1	31205	9.754863254585	0.213333333336
1	31556	9.786999411567	0.121666666671
1	33106	9.917010788352	0.208333333335
1	33173	9.922570409386	0.101666666667
1	33499	9.935903742722	0.115000000003
1	34118	9.9853327449	0.11666666667
1	34705	10.037145641351	0.325000000005
1	35142	10.061529921253	0.31666666667
1	36277	10.15923707606	0.113333333336
1	37539	10.327145641349	0.208333333335
1	37780	10.362570409394	0.215000000003
1	39330	10.604953721697	0.211666666669
1	40981	10.809771391035	0.311666666669
1	41404	10.840336700201	0.313333333336
1	42284	10.938670033534	0.208333333335
1	42813	11.011620388365	0.415000000003
1	42925	11.034773940159	0.311666666669
1	43388	11.066849191792	0.31666666667
1	44227	11.236438057707	0.331666666673
1	44848	11.363515858458	0.308333333335
1	45750	11.690478974695	0.420000000004
1	46848	12.112145641366	0.33333333334
1	46958	12.130085514771	0.225000000005
2	91	5.424133601332	0.203333333334
2	208	5.830800268	0.203333333334
2	1964	6.22679037236	0.21666666667
2	2232	6.255800268005	0.221666666671
2	2425	6.283780836234	0.203333333334
2	3112	6.352235143562	0.238333333341
2	4228	6.475827102682	0.305000000001
2	5431	6.616597139185	0.351666666677
2	5841	6.636790372362	0.321666666671
2	5953	6.64223514356	0.223333333338
2	6008	6.645654197653	0.328333333339
2	7036	6.74732086432	0.226666666672
2	8557	6.899930472515	0.228333333339
2	8976	6.94732086432	0.213333333336
2	9661	7.024484618281	0.468333333347
2	10295	7.08660825029	0.305000000001
2	10586	7.098245138387	0.223333333338
2	10744	7.113274916962	0.331666666673
2	11658	7.203987530998	0.125742392615
2	11683	7.205654197665	0.268333333347
2	12812	7.316151284946	0.251666666677
2	14062	7.49403558258	0.246666666676
2	14299	7.550092025343	0.341666666675
2	15914	7.856758692011	0.241666666675
2	16213	7.890702249246	0.338333333341
2	16751	7.989556410287	0.141666666675
2	17408	8.112164310436	0.238333333341
2	18821	8.295497643766	0.11666666667
2	19054	8.36752615153	0.340000000008
2	19806	8.502889743623	0.35000000001
2	20445	8.670859484864	0.236666666674
2	22453	8.896844657248	0.241666666675
2	22690	8.922626715994	0.25000000001
2	23988	9.047399909683	0.341666666675
2	24794	9.109293382658	0.23333333334
2	25587	9.198511323915	0.340000000008
2	25815	9.225079336151	0.468333333347
2	26382	9.286161266231	0.330000000006
2	27245	9.389604649496	0.255000000011
2	28368	9.50341266948	0.238333333341
2	28711	9.539066576348	0.325000000005
2	29713	9.632010788355	0.228333333339
2	30400	9.686271316162	0.246666666676
2	30444	9.692827932899	0.330000000006
2	32686	9.869863254588	0.328333333339
2	32908	9.889863254592	0.145000000009
2	33013	9.906999411571	0.241666666675
2	33645	9.945344121691	0.236666666674
2	34129	9.986598166138	0.203333333334
2	35171	10.06547897469	0.353333333344
2	35915	10.139237076056	0.21666666667
2	36321	10.162570409394	0.341666666675
2	36601	10.208666078238	0.340000000008
2	37574	10.330478974683	0.211666666669
2	37963	10.385903742732	0.340000000008
2	37981	10.393287055028	0.203355555556
2	38427	10.480903742731	0.33333333334
2	39775	10.645336700202	0.118333333337
2	40292	10.728104724372	0.230000000006
2	41531	10.849953721706	0.253333333344
2	41723	10.865336700206	0.135000000007
2	41867	10.895182525131	0.145000000009
2	44150	11.191440606837	0.468333333347
2	44664	11.283515858462	0.228333333339
2	45444	11.491438057718	0.586666666684
2	45653	11.597145641363	0.326666666672
2	47079	12.153418848109	0.248333333343
2	47106	12.162145641376	0.38333333335
3	105	5.451597139172	0.406666666668
3	1599	6.149133601337	0.318333333337
3	2270	6.264930472508	0.406666666668
3	2849	6.32679037236	0.31666666667
3	3850	6.432320864317	0.115000000003
3	4160	6.465800268007	0.431666666673
3	4750	6.530568476891	0.41666666667
3	5657	6.628987530983	0.108333333335
3	6873	6.737235143559	0.318333333337
3	7739	6.835123705695	0.520000000004
3	8596	6.90281795161	0.346666666676
3	9822	7.053987530988	0.320000000004
3	10534	7.094930472514	0.423333333338
3	11421	7.193245138386	0.318333333337
3	12170	7.268987530991	0.331666666673
3	12752	7.308274916961	0.526666666672
3	13536	7.404941583627	0.318333333337
3	13746	7.443425358675	0.235000000007
3	14075	7.49657847172	0.418333333337
3	14108	7.506151284944	0.441666666675
3	14265	7.542856410278	0.305000000001
3	15094	7.674035582576	0.426666666672
3	15991	7.867368915908	0.315000000003
3	17005	8.050092025343	0.435000000007
3	17568	8.152889743613	0.305000000001
3	17856	8.177889743618	0.330000000006
3	18171	8.208830977102	0.335000000007
3	18231	8.237526151524	0.210000000002
3	19727	8.488830977098	0.310000000002
3	21728	8.85085948486	0.41666666667
3	22784	8.940733243015	0.235000000007
3	23726	9.004293382657	0.331666666673
3	24623	9.091844657247	0.436666666674
3	24745	9.10341266948	0.346666666676
3	26410	9.288511323913	0.430000000006
3	26489	9.305960049324	0.430000000006
3	28064	9.472937982826	0.338333333341
3	28188	9.48116126623	0.525000000005
3	28367	9.50341266948	0.238333333341
3	28716	9.540733243015	0.326666666672
3	29599	9.618677455019	0.215000000003
3	29936	9.654863254585	0.113333333336
3	31523	9.784494599564	0.421666666671
3	32529	9.864604649491	0.425000000005
3	34796	10.042010788357	0.33333333334
3	35086	10.054863254585	0.310000000002
3	35275	10.078666078232	0.210000000002
3	35455	10.10199941157	0.436666666674
3	36200	10.153812308021	0.441666666675
3	36913	10.239237076056	0.31666666667
3	37025	10.252570409392	0.431666666673
3	38222	10.438812308018	0.320000000004
3	38398	10.47590374273	0.430000000006
3	39813	10.677570409397	0.530000000006
3	40049	10.713287055032	0.320000000004
3	41330	10.837003366867	0.310000000002
3	42155	10.931438057706	0.43333333334
3	42184	10.933287055036	0.336666666674
3	43312	11.060182525124	0.310000000002
3	43417	11.069773940166	0.346666666676
3	43867	11.160336700205	0.430000000006
3	43898	11.163104724379	0.258333333345
3	44418	11.268515858459	0.213333333336
3	45654	11.597145641363	0.326666666672
3	47437	12.242145641372	0.463333333346
3	47689	12.330085514771	0.425000000005
4	115	5.503901810219	0.305000000001
4	983	6.044133601336	0.213333333336
4	1132	6.113901810221	0.305000000001
4	2703	6.318457039025	0.308333333335
4	4095	6.449133601337	0.415000000003
4	4960	6.540123705696	0.225000000005
4	5832	6.635654197651	0.318333333337
4	6367	6.684930472512	0.420000000004
4	6682	6.732235143558	0.313333333336
4	7724	6.832320864317	0.311666666669
4	8369	6.888263805846	0.21666666667
4	9722	7.042320864319	0.308333333335
4	10521	7.094484618275	0.538333333341
4	10603	7.098274916959	0.31666666667
4	11259	7.188245138385	0.313333333336
4	12118	7.258987530989	0.321666666671
4	12656	7.299941583626	0.213333333336
4	13339	7.38615128494	0.321666666671
4	13347	7.386578471718	0.308333333335
4	14204	7.528425358672	0.320000000004
4	14765	7.62081504041	0.406666666668
4	15126	7.680702249244	0.43333333334
4	15962	7.862368915907	0.310000000002
4	16296	7.938425358674	0.323333333338
4	17833	8.17122307695	0.323333333338
4	18156	8.200497643767	0.326666666672
4	18618	8.28216431043	0.103333333334
4	19358	8.43419281819	0.406666666668
4	19517	8.45085948486	0.423333333338
4	20067	8.572889743617	0.420000000004
4	23270	8.978511323911	0.323333333338
4	23592	8.994293382655	0.321666666671
4	23895	9.025733243012	0.320000000004
4	24305	9.075177990577	0.21666666667
4	24656	9.094293382655	0.218333333337
4	25946	9.251271316155	0.11666666667
4	26252	9.274494599562	0.318333333337
4	26444	9.295079336145	0.538333333341
4	29601	9.618677455019	0.215000000003
4	29708	9.630733243013	0.41666666667
4	30334	9.679494599563	0.31666666667
4	30460	9.696746002812	0.431666666673
4	32479	9.859863254586	0.318333333337
4	32729	9.872937982826	0.43333333334
4	34161	9.988666078234	0.323333333338
4	34634	10.033677455022	0.325000000005
4	34726	10.037570409389	0.21666666667
4	35213	10.073196587922	0.328333333339
4	35858	10.135478974684	0.423333333338
4	36781	10.229237076054	0.306666666668
4	37158	10.262570409394	0.115000000003
4	37386	10.285903742732	0.240000000008
4	37404	10.290332744901	0.421666666671
4	38180	10.427145641349	0.308333333335
4	39360	10.606620388364	0.213333333336
4	39621	10.630336700199	0.103333333334
4	40047	10.713287055032	0.11666666667
4	41037	10.816438057703	0.318333333337
4	42228	10.9353367002	0.205000000001
4	43492	11.078515858461	0.328333333339
4	44338	11.261440606831	0.538333333341
4	44433	11.270182525126	0.215000000003
4	45230	11.453104724377	0.548333333343
4	45745	11.688812308028	0.418333333337
4	47361	12.227145641369	0.448333333343
4	47739	12.340085514773	0.435000000007
5	129	5.539484618264	0.508333333335
5	2063	6.237466934668	0.406666666668
5	2576	6.316790372358	0.306666666668
5	5029	6.544133601336	0.510000000002
5	5130	6.556151284934	0.508333333335
5	5279	6.573263805843	0.308333333335
5	5502	6.623901810223	0.510000000002
5	6536	6.723901810223	0.305000000001
5	6561	6.72556847689	0.204914279242
5	6700	6.732320864317	0.415000000003
5	7667	6.82679037236	0.511666666669
5	9137	6.978263805844	0.306666666668
5	9707	7.040654197652	0.306666666668
5	11071	7.17991180505	0.305000000001
5	11277	7.188274916957	0.406666666668
5	13765	7.44732086432	0.510000000002
5	14013	7.486578471718	0.408333333335
5	14058	7.493274916958	0.406666666668
5	14544	7.576151284938	0.511666666669
5	15212	7.721758692004	0.513333333336
5	15310	7.740079336134	0.508333333335
5	15445	7.757368915906	0.205000000001
5	15477	7.76070224924	0.513333333336
5	16831	8.026758692005	0.411666666669
5	18410	8.261223076948	0.413333333336
5	18659	8.284556410286	0.410725433191
5	19082	8.370115792411	0.508333333335
5	19468	8.437526151524	0.410000000002
5	19554	8.459556410281	0.306666666668
5	20096	8.587164310431	0.408333333335
5	20915	8.756746002804	0.508333333335
5	22803	8.944192818192	0.510000000002
5	24180	9.068511323909	0.413333333336
5	25171	9.165177990575	0.306666666668
5	25392	9.180960049319	0.305000000001
5	25455	9.184293382653	0.511666666669
5	25782	9.219066576344	0.513333333336
5	26842	9.362827932893	0.406666666668
5	27522	9.420733243011	0.206666666668
5	28879	9.544604649487	0.410000000002
5	29080	9.566161266227	0.203333333334
5	31453	9.776746002808	0.511666666669
5	31738	9.813412669482	0.409735214466
5	33021	9.909773940154	0.406666666668
5	33712	9.949863254584	0.408333333335
5	33749	9.952937982822	0.513333333336
5	35277	10.078666078232	0.413333333336
5	35510	10.117010788352	0.408333333335
5	35730	10.127570409387	0.306666666668
5	36717	10.225478974682	0.513333333336
5	36786	10.230344121688	0.307773712302
5	37079	10.256529921252	0.511666666669
5	37332	10.278666078232	0.410000000002
5	37684	10.352570409392	0.306666666668
5	38172	10.425478974682	0.306666666668
5	39007	10.557570409393	0.410000000002
5	40142	10.72310727349	0.406666666668
5	40893	10.801620388363	0.408333333335
5	42230	10.9353367002	0.408333333335
5	42782	11.004953721697	0.408333333335
5	42820	11.013104724369	0.515000000003
5	43704	11.138670033534	0.408333333335
5	44375	11.263515858458	0.513333333336
5	45196	11.41810472437	0.513333333336
5	45246	11.464771391046	0.409588865923
5	45315	11.477145641359	0.206666666668
5	47510	12.292145641362	0.513333333336
6	147	5.627466934666	0.203333333334
6	778	6.034133601334	0.203333333334
6	899	6.035800268001	0.205000000001
6	2816	6.325123705693	0.315000000003
6	4794	6.532235143558	0.418333333337
6	6009	6.645654197653	0.328333333339
6	6468	6.704930472516	0.440000000008
6	6901	6.738457039029	0.423333333338
6	7831	6.838987530985	0.318333333337
6	8007	6.855568476896	0.436666666674
6	9750	7.045654197653	0.311666666669
6	10564	7.096597139181	0.425000000005
6	10709	7.108274916961	0.326666666672
6	10719	7.109941583628	0.553790298694
6	12202	7.272320864325	0.335000000007
6	12357	7.284911805051	0.206666666668
6	12451	7.289941583624	0.203333333334
6	12786	7.31324513839	0.438333333341
6	13016	7.349035582571	0.101666666667
6	14111	7.507817951611	0.443333333342
6	15343	7.743425358675	0.535000000007
6	15997	7.869035582575	0.31666666667
6	16565	7.975497643762	0.101666666667
6	17041	8.053425358677	0.438333333341
6	17972	8.179556410285	0.331666666673
6	19558	8.460859484862	0.43333333334
6	19765	8.493830977099	0.315000000003
6	20108	8.591223076954	0.438333333341
6	21737	8.852526151527	0.418333333337
6	23772	9.009293382658	0.336666666674
6	24669	9.095177990581	0.440000000008
6	25612	9.20262671599	0.326666666672
6	25877	9.240733243015	0.535000000007
6	26349	9.282827932897	0.326666666672
6	26426	9.291161266232	0.432649942325
6	26498	9.310079336148	0.553333333344
6	28115	9.47627131616	0.341666666675
6	28314	9.491746002811	0.226666666672
6	28726	9.541271316153	0.101666666667
6	29742	9.642399909682	0.428333333339
6	31541	9.786161266231	0.423333333338
6	31706	9.810344121684	0.101666666667
6	32005	9.82367745502	0.420000000004
6	32350	9.851529921251	0.106666666668
6	32687	9.869863254588	0.328333333339
6	33768	9.953812308021	0.241666666675
6	35481	10.105332744904	0.440000000008
6	36888	10.237570409389	0.315000000003
6	37053	10.254237076059	0.43333333334
6	37428	10.300332744903	0.431666666673
6	38186	10.428812308016	0.310000000002
6	38412	10.477570409397	0.431666666673
6	39090	10.596620388362	0.203333333334
6	39799	10.669237076062	0.521666666671
6	40965	10.808104724368	0.310000000002
6	41465	10.843670033535	0.31666666667
6	41624	10.85684919179	0.106666666668
6	42243	10.93662038837	0.340000000008
6	43317	11.060336700205	0.330000000006
6	44587	11.276440606834	0.553333333344
6	45274	11.47351585846	0.418333333337
6	45534	11.573104724381	0.668333333347
6	45769	11.69881230803	0.428333333339
6	46427	12.006752181433	0.101666666667
6	46769	12.090036379505	0.406666666668
6	47453	12.245478974706	0.46666666668
7	153	5.635795749391	0.305000000001
7	1309	6.118457039025	0.108333333335
7	1560	6.145800268003	0.315000000003
7	2222	6.254133601338	0.220000000004
7	3883	6.433987530984	0.11666666667
7	4247	6.478263805844	0.213333333336
7	4657	6.527235143557	0.413333333336
7	6672	6.731790372361	0.41666666667
7	7757	6.835654197651	0.315000000003
7	7900	6.843901810227	0.425000000005
7	9076	6.971151284937	0.415000000003
7	9260	6.986597139179	0.315000000003
7	9768	7.04732086432	0.313333333336
7	10625	7.099941583626	0.318333333337
7	12130	7.262320864323	0.325000000005
7	12430	7.289911805052	0.211666666669
7	12671	7.301578471721	0.426666666672
7	13510	7.401608250293	0.315000000003
7	13866	7.464035582574	0.21666666667
7	14604	7.587817951607	0.523333333338
7	14833	7.638425358674	0.430000000006
7	15707	7.838425358674	0.223333333338
7	15992	7.867368915908	0.315000000003
7	16681	7.98216431043	0.108333333335
7	18272	8.247526151526	0.220000000004
7	18492	8.267889743616	0.420000000004
7	19046	8.366223076949	0.213333333336
7	19708	8.487164310431	0.308333333335
7	21714	8.847526151526	0.413333333336
7	22221	8.880177990578	0.225000000005
7	23659	8.999293382656	0.326666666672
7	24336	9.076844657244	0.218333333337
7	25014	9.135733243014	0.430000000006
7	25267	9.171746002807	0.415000000003
7	25568	9.195960049322	0.320000000004
7	26253	9.274494599562	0.318333333337
7	27925	9.464604649491	0.330000000006
7	28270	9.48674600281	0.221666666671
7	29207	9.574494599562	0.211666666669
7	29576	9.615344121685	0.211666666669
7	29725	9.635733243014	0.421666666671
7	29925	9.654604649489	0.215000000003
7	29974	9.658196587919	0.11666666667
7	31818	9.817010788352	0.108333333335
7	32915	9.890332744901	0.225000000005
7	33544	9.938812308018	0.226666666672
7	34592	10.030903742721	0.108333333335
7	34852	10.044237076057	0.223333333338
7	35065	10.053196587918	0.308333333335
7	35361	10.088666078234	0.220000000004
7	37181	10.264237076061	0.218333333337
7	38198	10.43214564135	0.313333333336
7	38335	10.465903742728	0.318333333337
7	40005	10.709953721698	0.31666666667
7	40921	10.804771391034	0.306666666668
7	41287	10.8353367002	0.308333333335
7	42108	10.924953721701	0.328333333339
7	43016	11.042003366868	0.311666666669
7	43288	11.058515858457	0.308333333335
7	43698	11.138107273493	0.415000000003
7	44389	11.265182525125	0.210000000002
7	44789	11.344771391042	0.440000000008
7	45753	11.692145641362	0.421666666671
7	46895	12.120085514769	0.215000000003
7	47316	12.220478974701	0.441666666675
8	164	5.705123705689	0.305000000001
8	1513	6.140800268002	0.310000000002
8	2462	6.315123705691	0.305000000001
8	2737	6.320123705692	0.310000000002
8	2934	6.332235143558	0.218333333337
8	4199	6.472466934675	0.438333333341
8	7629	6.813263805851	0.548333333343
8	7769	6.837235143559	0.418333333337
8	8004	6.853987530988	0.536666666674
8	8592	6.901608250293	0.120000000004
8	8942	6.943987530986	0.423333333338
8	10653	7.103263805849	0.431666666673
8	10758	7.116151284946	0.560000000012
8	10861	7.150654197654	0.41666666667
8	11295	7.189484618274	0.125000000005
8	12508	7.293245138386	0.418333333337
8	13482	7.398245138387	0.311636888097
8	13912	7.473987530992	0.536666666674
8	14093	7.502320864331	0.424075725948
8	15125	7.680702249244	0.43333333334
8	15365	7.746758692009	0.538333333341
8	16126	7.874035582576	0.321666666671
8	17022	8.05175869201	0.436666666674
8	17064	8.056223076947	0.208333333335
8	18062	8.185497643764	0.311666666669
8	19598	8.465859484863	0.438333333341
8	19728	8.488830977098	0.310000000002
8	20268	8.652526151527	0.218333333337
8	20639	8.699556410289	0.546666666676
8	24349	9.077827932896	0.121666666671
8	24407	9.080177990578	0.221666666671
8	24624	9.091844657247	0.436666666674
8	25646	9.209293382658	0.536666666674
8	25899	9.244066576349	0.538333333341
8	26450	9.295960049322	0.420000000004
8	26520	9.316746002816	0.560000000012
8	27926	9.464604649491	0.330000000006
8	29796	9.645733243016	0.431666666673
8	30198	9.669494599561	0.306666666668
8	31641	9.801746002813	0.536666666674
8	32110	9.832010788355	0.428333333339
8	32703	9.871271316159	0.431666666673
8	34398	10.020344121686	0.311666666669
8	34802	10.042145641352	0.330000000006
8	34824	10.04257040939	0.221666666671
8	35260	10.078196587923	0.536666666674
8	35456	10.10199941157	0.436666666674
8	36515	10.189863254592	0.445000000009
8	36816	10.230903742721	0.308333333335
8	37199	10.265903742728	0.118333333337
8	37342	10.279237076064	0.23333333334
8	37443	10.305332744904	0.436666666674
8	38962	10.535478974684	0.41666666667
8	39900	10.70328705503	0.310000000002
8	39968	10.708104724368	0.210000000002
8	41331	10.837003366867	0.310000000002
8	42120	10.926620388368	0.330000000006
8	43039	11.043670033535	0.313333333336
8	44160	11.195182525131	0.445000000009
8	44659	11.283107273502	0.560000000012
8	45375	11.483515858462	0.428333333339
8	45574	11.581438057716	0.676666666682
8	45784	11.702145641364	0.431666666673
8	47264	12.213317433471	0.406666666668
8	47481	12.253812308041	0.475000000015
8	47719	12.336752181439	0.431666666673
9	194	5.80890181022	0.305000000001
9	986	6.044133601336	0.213333333336
9	2947	6.333457039028	0.323333333338
9	3431	6.418901810222	0.305000000001
9	4088	6.448901810228	0.335000000007
9	4147	6.460800268006	0.426666666672
9	4163	6.468245138381	0.203333333334
9	5422	6.613263805851	0.348333333343
9	6893	6.737320864318	0.21666666667
9	7003	6.745123705697	0.430000000006
9	7020	6.745654197653	0.428333333339
9	7893	6.842320864319	0.108333333335
9	8083	6.874911805049	0.203333333334
9	8695	6.916151284946	0.360000000012
9	9429	6.996597139181	0.325000000005
9	10720	7.109941583628	0.328333333339
9	12595	7.29657847172	0.218333333337
9	12620	7.298245138387	0.360924274069
9	12659	7.299941583626	0.213333333336
9	14136	7.514484618279	0.45000000001
9	14616	7.592368915913	0.345000000009
9	14875	7.646758692009	0.438333333341
9	15581	7.782368915911	0.230000000006
9	15883	7.85175869201	0.236666666674
9	18024	8.182889743619	0.335000000007
9	18752	8.288830977098	0.415000000003
9	19252	8.388830977098	0.210000000002
9	19569	8.462526151529	0.435000000007
9	19793	8.499556410289	0.346666666676
9	21099	8.76752615153	0.33333333334
9	22386	8.891844657247	0.236666666674
9	23851	9.01929338266	0.346666666676
9	24830	9.116746002816	0.360000000012
9	25052	9.144066576349	0.438333333341
9	25445	9.183511323912	0.325000000005
9	25633	9.207626715991	0.331666666673
9	26348	9.282827932897	0.326666666672
9	26653	9.33239990968	0.118333333337
9	29374	9.586271316162	0.451666666677
9	29388	9.587827932898	0.225000000005
9	30486	9.70341266948	0.438333333341
9	30913	9.732010788355	0.328333333339
9	31526	9.784604649495	0.345000000009
9	32987	9.90199941157	0.236666666674
9	33918	9.969863254588	0.428333333339
9	34866	10.045478974686	0.33333333334
9	35166	10.064863254587	0.320000000004
9	35654	10.12367745502	0.415000000003
9	36000	10.145903742724	0.325000000005
9	36741	10.227145641349	0.108333333335
9	36961	10.247010788358	0.324440378972
9	37434	10.303666078237	0.435000000007
9	37858	10.370903742729	0.325000000005
9	39072	10.580903742731	0.43333333334
9	39362	10.606620388364	0.213333333336
9	40139	10.723104724371	0.225000000005
9	40562	10.737003366867	0.210000000002
9	41484	10.845336700202	0.115000000003
9	43076	11.046620388372	0.45000000001
9	43439	11.071849191793	0.321666666671
9	43522	11.083107273502	0.360000000012
9	45048	11.383515858462	0.328333333339
9	45122	11.390478974695	0.120000000004
9	45370	11.483104724383	0.578333333349
9	45665	11.600018848099	0.305000000001
9	47148	12.210085514767	0.305000000001
9	47468	12.251752181442	0.346666666676
9	47486	12.255478974708	0.476666666682
10	383	5.910654197646	0.203333333334
10	1597	6.149133601337	0.318333333337
10	1884	6.221790372359	0.211666666669
10	2592	6.317320864314	0.203333333334
10	3149	6.359133601339	0.325000000005
10	3296	6.383263805845	0.118333333337
10	3974	6.440568476893	0.326666666672
10	6639	6.728987530983	0.208333333335
10	7733	6.833987530984	0.518863825293
10	7972	6.848901810228	0.430000000006
10	9399	6.994930472514	0.323333333338
10	9476	6.999484618276	0.443333333342
10	9810	7.052320864321	0.318333333337
10	10920	7.162320864323	0.225000000005
10	11654	7.20327491696	0.421666666671
10	12727	7.306578471722	0.431666666673
10	13346	7.386578471718	0.308333333335
10	13534	7.404941583627	0.318333333337
10	14086	7.499484618276	0.435000000007
10	14261	7.541758692008	0.33333333334
10	14509	7.569035582575	0.321666666671
10	16315	7.943425358675	0.328333333339
10	16659	7.980702249244	0.428333333339
10	17336	8.088830977098	0.215000000003
10	17841	8.174556410284	0.326666666672
10	18513	8.27122307695	0.118333333337
10	18938	8.354192818194	0.326666666672
10	19249	8.388830977098	0.210000000002
10	20119	8.596669713866	0.305000000001
10	21039	8.759192818195	0.325000000005
10	22466	8.897626715989	0.225000000005
10	23415	8.985177990579	0.330000000006
10	23956	9.039066576348	0.33333333334
10	25009	9.134863254581	0.203333333334
10	25444	9.183511323912	0.325000000005
10	25593	9.200079336146	0.443333333342
10	25601	9.200960049323	0.325000000005
10	27141	9.379494599563	0.423333333338
10	27295	9.396746002812	0.131666666673
10	28499	9.515344121685	0.111666666669
10	28729	9.541529921249	0.203333333334
10	29052	9.562937982824	0.428333333339
10	29737	9.639066576348	0.425000000005
10	30344	9.68116126623	0.318333333337
10	31246	9.75960464949	0.320000000004
10	33279	9.92367745502	0.215000000003
10	33736	9.951529921251	0.206666666668
10	34218	9.995332744902	0.330000000006
10	34987	10.047145641353	0.335000000007
10	35845	10.134237076055	0.211666666669
10	36020	10.147570409391	0.326666666672
10	36550	10.195332744902	0.326666666672
10	37857	10.370903742729	0.325000000005
10	38217	10.437145641351	0.318333333337
10	39052	10.574237076063	0.426666666672
10	40029	10.711620388365	0.318333333337
10	40560	10.737003366867	0.210000000002
10	42014	10.908104724368	0.410000000002
10	42507	10.95684919179	0.206666666668
10	42867	11.024953721701	0.428333333339
10	43937	11.165182525125	0.110000000002
10	43947	11.166440606832	0.443333333342
10	44067	11.176849191794	0.446512491595
10	44298	11.258104724378	0.353333333344
10	45763	11.695478974696	0.425000000005
10	47346	12.22508551477	0.320000000004
10	47722	12.337145641371	0.558333333345
11	390	5.920877885872	0.101666666667
11	922	6.037466934668	0.206666666668
11	1235	6.11398753098	0.203333333334
11	3094	6.349133601337	0.315000000003
11	3272	6.378263805844	0.113333333336
11	3422	6.418457039025	0.408333333335
11	3569	6.420568476889	0.306666666668
11	4402	6.520654197648	0.203333333334
11	4716	6.528987530983	0.211666666669
11	5585	6.627235143557	0.208333333335
11	6551	6.725123705693	0.410000000002
11	7176	6.774484618271	0.218333333337
11	8939	6.943987530986	0.210000000002
11	9232	6.984930472512	0.313333333336
11	10241	7.083245138384	0.208333333335
11	11392	7.191608250291	0.410000000002
11	12080	7.250654197654	0.313333333336
11	12525	7.293274916958	0.206666666668
11	13257	7.379484618272	0.315000000003
11	13370	7.388987530995	0.310742392612
11	14203	7.528425358672	0.320000000004
11	14461	7.559035582573	0.311666666669
11	15475	7.76070224924	0.208333333335
11	16832	8.026758692005	0.411666666669
11	17115	8.062889743615	0.215000000003
11	17322	8.087164310431	0.213333333336
11	18451	8.264556410282	0.111666666669
11	18884	8.339192818191	0.311666666669
11	19153	8.38216431043	0.203333333334
11	20826	8.740859484858	0.306666666668
11	23186	8.975079336141	0.218333333337
11	23435	8.98596004932	0.313333333336
11	23894	9.025733243012	0.320000000004
11	24143	9.066844657242	0.411666666669
11	25503	9.187626715987	0.311666666669
11	26204	9.27007933614	0.411568012233
11	26790	9.351271316155	0.21666666667
11	26990	9.366271316158	0.410110049933
11	27578	9.427399909679	0.213333333336
11	29306	9.581746002809	0.31666666667
11	29561	9.613677455018	0.210000000002
11	30226	9.671161266228	0.308333333335
11	31127	9.749604649488	0.310000000002
11	31162	9.751529921251	0.210000000002
11	33145	9.920344121686	0.211666666669
11	34532	10.028812308016	0.31666666667
11	35098	10.056529921252	0.311666666669
11	35256	10.076999411565	0.411666666669
11	36450	10.178666078232	0.310000000002
11	36818	10.230903742721	0.410000000002
11	37554	10.328812308016	0.210000000002
11	37577	10.330903742721	0.408333333335
11	38276	10.455903742726	0.410000000002
11	39006	10.557570409393	0.410000000002
11	39272	10.601620388363	0.208333333335
11	40331	10.730336700199	0.203333333334
11	41007	10.811620388365	0.215000000003
11	41036	10.816438057703	0.318333333337
11	42321	10.941440606827	0.218333333337
11	43015	11.042003366868	0.311666666669
11	43337	11.061849191791	0.311666666669
11	44201	11.226438057705	0.321666666671
11	44390	11.265182525125	0.210000000002
11	45387	11.483812308027	0.213333333336
11	46798	12.102145641364	0.323333333338
11	47288	12.215085514768	0.310000000002
12	410	5.932466934667	0.101666666667
12	2574	6.316790372358	0.306666666668
12	2992	6.339133601335	0.305000000001
12	3647	6.423901810223	0.310000000002
12	4381	6.520123705692	0.205000000001
12	5289	6.57493047251	0.310000000002
12	5525	6.623987530982	0.306666666668
12	6595	6.727235143557	0.308333333335
12	6622	6.728901810224	0.208247612576
12	8891	6.940654197652	0.206666666668
12	9062	6.967817951603	0.411666666669
12	9135	6.978263805844	0.306666666668
12	10455	7.089941583624	0.308333333335
12	10989	7.171151284937	0.106666666668
12	11192	7.184911805051	0.310000000002
12	11281	7.188274916957	0.101666666667
12	11916	7.237856410277	0.305000000001
12	11945	7.245654197653	0.308333333335
12	12297	7.282320864327	0.204075725944
12	14120	7.511742666896	0.305000000001
12	14462	7.559035582573	0.311666666669
12	14745	7.616758692003	0.408333333335
12	15753	7.847889743612	0.305033333334
12	15947	7.86070224924	0.308333333335
12	16236	7.920092025337	0.305000000001
12	18039	8.183830977097	0.310000000002
12	19152	8.38216431043	0.203333333334
12	19475	8.439192818191	0.411666666669
12	19565	8.461223076948	0.308333333335
12	20836	8.742526151525	0.308333333335
12	22955	8.960177990574	0.305000000001
12	23327	8.980960049319	0.308333333335
12	24813	9.114066576343	0.408333333335
12	25211	9.168412669473	0.411666666669
12	25424	9.182626715986	0.306666666668
12	26157	9.265177990575	0.406666666668
12	26169	9.266844657242	0.310683391017
12	27809	9.444604649487	0.310000000002
12	29178	9.571746002807	0.306666666668
12	29520	9.610344121684	0.206666666668
12	29663	9.625733243012	0.411666666669
12	30195	9.669494599561	0.306666666668
12	31148	9.751271316155	0.311666666669
12	32289	9.848196587917	0.306666666668
12	33681	9.948196587917	0.203333333334
12	33928	9.970332744897	0.305000000001
12	34363	10.017010788352	0.308333333335
12	35683	10.125478974682	0.413333333336
12	36749	10.227570409387	0.406666666668
12	36779	10.229237076054	0.306666666668
12	37243	10.270088435782	0.203333333334
12	37346	10.280332744899	0.411666666669
12	37519	10.325478974682	0.206666666668
12	38255	10.452570409392	0.305000000001
12	38391	10.474237076063	0.428333333339
12	38466	10.494953721695	0.101666666667
12	40461	10.732003366866	0.205000000001
12	40900	10.803104724367	0.305000000001
12	41993	10.904953721697	0.308333333335
12	42225	10.9353367002	0.205000000001
12	42461	10.953515858456	0.203333333334
12	43675	11.134773940159	0.411666666669
12	44350	11.261849191791	0.206666666668
12	45199	11.419771391037	0.515000000003
12	45720	11.68214564136	0.411666666669
12	47123	12.192145641362	0.413333333336
12	47304	12.218418848102	0.313333333336
13	453	5.935800268001	0.105000000001
13	1615	6.150800268004	0.11666666667
13	2848	6.32679037236	0.31666666667
13	4103	6.450568476895	0.336666666674
13	4404	6.520654197648	0.203333333334
13	5356	6.589930472513	0.325000000005
13	6839	6.735123705695	0.420000000004
13	6908	6.738901810226	0.320000000004
13	7947	6.845654197653	0.325000000005
13	8941	6.943987530986	0.210000000002
13	9459	6.998263805848	0.326666666672
13	10781	7.121151284947	0.565000000013
13	10800	7.140654197652	0.203333333334
13	11336	7.189941583624	0.103333333334
13	11475	7.194911805053	0.320000000004
13	11878	7.218274916963	0.436666666674
13	12683	7.302320864331	0.224075725948
13	13590	7.414484618279	0.35000000001
13	13808	7.452368915905	0.205000000001
13	14883	7.648425358676	0.440000000008
13	16193	7.885702249245	0.33333333334
13	16404	7.955092025344	0.340000000008
13	17224	8.078830977096	0.205000000001
13	17314	8.086223076953	0.238333333341
13	19304	8.393830977099	0.215000000003
13	19585	8.464192818196	0.436666666674
13	19663	8.477889743618	0.325000000005
13	21112	8.769192818197	0.335000000007
13	22060	8.875960049318	0.203333333334
13	23607	8.995177990581	0.340000000008
13	25060	9.145733243016	0.440000000008
13	25645	9.209293382658	0.33333333334
13	26447	9.295177990581	0.436666666674
13	26562	9.321746002817	0.565000000013
13	26692	9.338196587915	0.203333333334
13	27257	9.391161266232	0.435000000007
13	27311	9.400079336146	0.135000000007
13	28263	9.486271316162	0.351666666677
13	29738	9.639066576348	0.425000000005
13	29775	9.644604649487	0.205000000001
13	30432	9.691161266232	0.328333333339
13	30863	9.725344121687	0.321666666671
13	30958	9.744863254583	0.203333333334
13	31079	9.74652992125	0.205000000001
13	33066	9.913677455018	0.205000000001
13	34308	10.005332744904	0.340000000008
13	35146	10.062145641356	0.35000000001
13	35919	10.140149191787	0.305000000001
13	36912	10.239237076056	0.31666666667
13	37120	10.25923707606	0.438333333341
13	37442	10.305332744904	0.436666666674
13	37556	10.328812308016	0.210000000002
13	38433	10.482570409398	0.436666666674
13	38491	10.496620388362	0.103333333334
13	39065	10.579237076064	0.431666666673
13	40640	10.743670033535	0.21666666667
13	40678	10.750182525122	0.305033333334
13	41113	10.826438057705	0.328333333339
13	42400	10.946620388372	0.35000000001
13	42593	10.963670033539	0.23333333334
13	44691	11.288107273503	0.565000000013
13	44936	11.375182525127	0.320000000004
13	45391	11.48477139105	0.580000000016
13	45766	11.697145641363	0.426666666672
13	46827	12.110085514767	0.205000000001
13	47492	12.257145641375	0.478333333349
14	497	5.939133601335	0.108333333335
14	1306	6.118457039025	0.108333333335
14	2147	6.245800268003	0.211666666669
14	3838	6.432235143558	0.318333333337
14	5709	6.63065419765	0.313333333336
14	5852	6.637235143559	0.218333333337
14	6161	6.671578471715	0.203333333334
14	6307	6.676597139177	0.411666666669
14	6708	6.733457039028	0.418333333337
14	7825	6.838987530985	0.105000000001
14	7964	6.84732086432	0.326666666672
14	9063	6.967817951603	0.411666666669
14	9214	6.984484618273	0.312887479097
14	9809	7.052320864321	0.115000000003
14	10066	7.078245138383	0.203333333334
14	10530	7.094911805053	0.220000000004
14	11492	7.194941583625	0.108333333335
14	11572	7.198274916959	0.41666666667
14	13147	7.367368915908	0.120000000004
14	13308	7.384484618273	0.320000000004
14	14812	7.631758692006	0.423333333338
14	15520	7.767368915908	0.215000000003
14	15695	7.83509202534	0.220000000004
14	17065	8.056223076947	0.208333333335
14	17253	8.080497643763	0.206666666668
14	18258	8.244192818192	0.21666666667
14	19177	8.383830977097	0.205000000001
14	20020	8.564556410282	0.411666666669
14	20889	8.75085948486	0.31666666667
14	21317	8.789293382654	0.11666666667
14	22176	8.876844657244	0.221666666671
14	23466	8.987626715987	0.111666666669
14	24250	9.071844657243	0.213333333336
14	24896	9.129066576346	0.423333333338
14	25236	9.17007933614	0.413333333336
14	27063	9.372827932895	0.41666666667
14	27886	9.45960464949	0.325000000005
14	28668	9.530733243013	0.31666666667
14	29026	9.55960464949	0.120000000004
14	29254	9.577827932896	0.215000000003
14	29289	9.580079336142	0.315000000003
14	29504	9.608677455017	0.205000000001
14	32408	9.854863254585	0.313333333336
14	32889	9.886999411567	0.221666666671
14	33084	9.915344121685	0.206666666668
14	33825	9.958196587919	0.213333333336
14	34589	10.030903742721	0.108333333335
14	34673	10.035478974684	0.323333333338
14	34850	10.044237076057	0.223333333338
14	35335	10.0853327449	0.21666666667
14	36658	10.222145641348	0.103333333334
14	37118	10.25923707606	0.213333333336
14	38316	10.462570409394	0.315000000003
14	38663	10.501620388363	0.108333333335
14	40465	10.732003366866	0.205000000001
14	40963	10.808104724368	0.310000000002
14	42081	10.9199537217	0.323333333338
14	42388	10.945336700202	0.215000000003
14	42589	10.963515858458	0.213333333336
14	43676	11.134773940159	0.411666666669
14	44330	11.260182525124	0.205000000001
14	44775	11.336438057707	0.431666666673
14	45608	11.587145641361	0.31666666667
14	46576	12.026752181437	0.121666666671
14	47261	12.212145641366	0.43333333334
15	498	5.939133601335	0.108333333335
15	2197	6.250800268004	0.21666666667
15	2741	6.320123705692	0.310000000002
15	2751	6.320568476889	0.206666666668
15	4277	6.486597139179	0.221666666671
15	5659	6.628987530983	0.108333333335
15	5796	6.633987530984	0.31666666667
15	6612	6.728457039027	0.413333333336
15	6651	6.730568476891	0.311666666669
15	8275	6.882817951606	0.326666666672
15	8343	6.886597139179	0.215000000003
15	9784	7.048987530987	0.315000000003
15	10604	7.098274916959	0.31666666667
15	11227	7.186578471718	0.311666666669
15	11493	7.194941583625	0.108333333335
15	12119	7.258987530989	0.321666666671
15	12455	7.290654197662	0.212409059279
15	13338	7.38615128494	0.321666666671
15	13851	7.46070224924	0.213333333336
15	14823	7.63509202534	0.426666666672
15	15584	7.783957647758	0.305000000001
15	15974	7.864035582574	0.311666666669
15	16273	7.930092025339	0.315000000003
15	16743	7.988830977098	0.115000000003
15	17088	8.059556410281	0.211666666669
15	18245	8.240859484858	0.213333333336
15	19099	8.372889743617	0.220000000004
15	19224	8.387164310431	0.208333333335
15	20182	8.640859484858	0.206666666668
15	23126	8.970177990576	0.315000000003
15	23618	8.995960049322	0.323333333338
15	24470	9.083412669476	0.326666666672
15	24903	9.13239990968	0.426666666672
15	25553	9.194293382655	0.318333333337
15	25979	9.257937982823	0.123333333338
15	26239	9.272827932895	0.31666666667
15	26311	9.278511323911	0.420000000004
15	28677	9.53239990968	0.318333333337
15	29307	9.581746002809	0.31666666667
15	29885	9.651271316155	0.211666666669
15	30229	9.671161266228	0.308333333335
15	30822	9.720344121686	0.31666666667
15	31980	9.822010788353	0.113333333336
15	32455	9.858196587919	0.31666666667
15	33516	9.937145641351	0.225000000005
15	33859	9.961529921253	0.21666666667
15	34065	9.980332744899	0.315000000003
15	35295	10.080332744899	0.211666666669
15	36843	10.232570409388	0.310000000002
15	36956	10.245903742724	0.425000000005
15	38207	10.433812308017	0.315000000003
15	38302	10.45923707606	0.311666666669
15	38337	10.465903742728	0.420000000004
15	38679	10.50328705503	0.110000000002
15	40075	10.716438057703	0.218333333337
15	40099	10.718287055033	0.121666666671
15	40559	10.737003366867	0.210000000002
15	42404	10.947003366869	0.21666666667
15	42621	10.966849191792	0.21666666667
15	43094	11.049773940162	0.326666666672
15	44782	11.339771391041	0.435000000007
15	44895	11.371849191793	0.31666666667
15	45615	11.588812308028	0.318333333337
15	46478	12.012145641366	0.23333333334
15	46876	12.116752181435	0.211666666669
16	499	5.939133601335	0.108333333335
16	1791	6.216790372358	0.206666666668
16	2781	6.322235143556	0.208333333335
16	3095	6.349133601337	0.315000000003
16	4749	6.530568476891	0.111666666669
16	5721	6.631790372361	0.31666666667
16	6422	6.694930472514	0.430000000006
16	6983	6.742320864319	0.425000000005
16	7736	6.833987530984	0.313333333336
16	8918	6.942320864319	0.208333333335
16	9254	6.986578471718	0.111666666669
16	9345	6.99159713918	0.320000000004
16	9484	6.999911805054	0.44376052012
16	9497	6.999941583626	0.218333333337
16	11494	7.194941583625	0.108333333335
16	12149	7.265654197657	0.328333333339
16	12576	7.295654197663	0.21740905928
16	13425	7.392817951608	0.328333333339
16	14575	7.580702249244	0.33333333334
16	14813	7.631758692006	0.423333333338
16	15299	7.736758692007	0.121666666671
16	16125	7.874035582576	0.321666666671
16	17162	8.07122307695	0.223333333338
16	17991	8.180497643763	0.306666666668
16	18923	8.35085948486	0.323333333338
16	19275	8.390497643765	0.211666666669
16	20083	8.581223076952	0.428333333339
16	20198	8.642526151525	0.208333333335
16	21192	8.776844657244	0.121666666671
16	23706	9.00262671599	0.330000000006
16	24897	9.129066576346	0.423333333338
16	25285	9.172827932895	0.21666666667
16	25415	9.181844657245	0.323333333338
16	25558	9.195079336145	0.438333333341
16	25590	9.199293382656	0.323333333338
16	27592	9.429066576346	0.215000000003
16	27870	9.456271316156	0.321666666671
16	29381	9.58674600281	0.321666666671
16	30333	9.679494599563	0.31666666667
16	30839	9.722010788353	0.318333333337
16	31404	9.772937982826	0.33333333334
16	31557	9.786999411567	0.121666666671
16	33461	9.933812308017	0.221666666671
16	33899	9.966529921254	0.425000000005
16	33957	9.973196587922	0.228333333339
16	34353	10.015344121685	0.306666666668
16	35765	10.129237076054	0.206666666668
16	35999	10.145903742724	0.325000000005
16	36495	10.186372273668	0.305000000001
16	36524	10.190332744901	0.321666666671
16	37479	10.323670033531	0.203333333334
16	37542	10.327145641349	0.208333333335
16	37839	10.369237076062	0.323333333338
16	38345	10.467570409395	0.320000000004
16	38664	10.501620388363	0.108333333335
16	39459	10.614771391036	0.11666666667
16	40328	10.730336700199	0.203333333334
16	40608	10.740336700201	0.213333333336
16	42072	10.918287055033	0.321666666671
16	42695	10.978515858461	0.228333333339
16	43875	11.161440606831	0.438333333341
16	44918	11.37351585846	0.318333333337
16	45233	11.454771391044	0.55000000001
16	45413	11.487145641361	0.21666666667
16	46945	12.127145641369	0.348333333343
16	47427	12.240085514773	0.335000000007
16	47621	12.321752181436	0.111666666669
17	539	5.944133601336	0.113333333336
17	2051	6.235568476892	0.121666666671
17	2815	6.325123705693	0.315000000003
17	3121	6.352466934671	0.318333333337
17	4921	6.537320864318	0.220000000004
17	5339	6.584930472512	0.320000000004
17	5771	6.633901810225	0.215000000003
17	5992	6.645123705697	0.330000000006
17	6731	6.733987530984	0.213333333336
17	7459	6.789930472513	0.118333333337
17	8917	6.942320864319	0.208333333335
17	9443	6.997817951609	0.441666666675
17	10438	7.089911805052	0.215000000003
17	10910	7.160654197656	0.223333333338
17	11596	7.199941583626	0.113333333336
17	11680	7.204941583627	0.423333333338
17	12386	7.286578471718	0.208333333335
17	13460	7.396151284942	0.331666666673
17	13684	7.431758692006	0.223333333338
17	14500	7.568830977094	0.305000000001
17	14594	7.585702249245	0.338333333341
17	15491	7.762368915907	0.210000000002
17	16316	7.943425358675	0.328333333339
17	17168	8.072889743617	0.225000000005
17	17864	8.178830977096	0.305000000001
17	18162	8.203830977101	0.330000000006
17	18937	8.354192818194	0.326666666672
17	19651	8.472889743617	0.320000000004
17	19982	8.554192818194	0.120000000004
17	22442	8.895960049322	0.223333333338
17	22722	8.929066576346	0.223333333338
17	23381	8.983511323912	0.328333333339
17	23616	8.995960049322	0.120000000004
17	25367	9.178511323911	0.320000000004
17	25582	9.198412669479	0.441666666675
17	26818	9.357937982823	0.223333333338
17	27165	9.38116126623	0.425000000005
17	28555	9.520344121686	0.11666666667
17	28679	9.53239990968	0.318333333337
17	29279	9.579494599563	0.21666666667
17	29450	9.598412669479	0.33333333334
17	31270	9.761529921253	0.220000000004
17	31468	9.777937982827	0.338333333341
17	33997	9.976529921256	0.231666666673
17	34205	9.993666078235	0.328333333339
17	34700	10.037010788356	0.328333333339
17	35617	10.120336700197	0.203333333334
17	35905	10.138812308018	0.426666666672
17	35941	10.140903742723	0.320000000004
17	36544	10.193666078235	0.325000000005
17	36892	10.238677455023	0.316107045637
17	37541	10.327145641349	0.208333333335
17	37836	10.369237076062	0.221666666671
17	37970	10.389237076066	0.343333333342
17	38718	10.506620388364	0.113333333336
17	38809	10.527003366865	0.203333333334
17	41061	10.8199537217	0.223333333338
17	41095	10.824771391038	0.326666666672
17	42444	10.95200336687	0.221666666671
17	42713	10.981849191795	0.231666666673
17	43924	11.164773940165	0.441666666675
17	44016	11.171849191793	0.11666666667
17	44813	11.358104724378	0.453333333344
17	45624	11.590478974695	0.320000000004
17	46974	12.13214564137	0.353333333344
17	47449	12.245085514774	0.340000000008
18	753	6.022544552539	0.101666666667
18	923	6.037466934668	0.206666666668
18	2790	6.323457039026	0.313333333336
18	3932	6.437235143559	0.323333333338
18	4124	6.452466934671	0.418333333337
18	4315	6.494930472514	0.230000000006
18	4885	6.535654197651	0.218333333337
18	5618	6.628457039027	0.313333333336
18	5867	6.637320864318	0.11666666667
18	5976	6.643901810227	0.225000000005
18	7965	6.84732086432	0.113333333336
18	8467	6.894484618275	0.338333333341
18	9344	6.99159713918	0.320000000004
18	10631	7.101578471721	0.226666666672
18	10903	7.158987530989	0.221666666671
18	11653	7.20327491696	0.421666666671
18	12406	7.288245138385	0.210000000002
18	12497	7.292817951608	0.228333333339
18	12541	7.294484618275	0.207876367985
18	14590	7.584035582578	0.336666666674
18	14818	7.633425358673	0.425000000005
18	15564	7.775702249243	0.223333333338
18	16517	7.969556410283	0.121666666671
18	16980	8.043425358675	0.428333333339
18	18159	8.202164310434	0.328333333339
18	19135	8.381223076952	0.228333333339
18	19222	8.387164310431	0.208333333335
18	19535	8.454192818194	0.426666666672
18	20911	8.755859484861	0.321666666671
18	22417	8.894293382655	0.221666666671
18	24481	9.083511323912	0.428333333339
18	24662	9.095079336145	0.338333333341
18	24900	9.130733243013	0.425000000005
18	25295	9.17351132391	0.315000000003
18	25578	9.197626715989	0.321666666671
18	27142	9.379494599563	0.423333333338
18	28012	9.469604649492	0.335000000007
18	28554	9.520344121686	0.11666666667
18	28696	9.535733243014	0.321666666671
18	29277	9.579494599563	0.21666666667
18	29443	9.596746002812	0.331666666673
18	31256	9.759863254586	0.218333333337
18	31443	9.77627131616	0.336666666674
18	34668	10.035344121689	0.326666666672
18	35243	10.076529921256	0.331666666673
18	35404	10.093666078235	0.428333333339
18	35872	10.135903742722	0.315000000003
18	36005	10.147145641353	0.435000000007
18	36829	10.23214564135	0.113333333336
18	36899	10.238812308018	0.316241898632
18	37412	10.293666078235	0.425000000005
18	37766	10.360903742727	0.315000000003
18	39039	10.570903742729	0.423333333338
18	39241	10.599953721696	0.206666666668
18	40527	10.7353367002	0.208333333335
18	42085	10.921438057704	0.423333333338
18	42149	10.929953721702	0.33333333334
18	43114	11.05200336687	0.321666666671
18	43325	11.061440606831	0.338333333341
18	43514	11.081849191795	0.331666666673
18	44015	11.171849191793	0.11666666667
18	44810	11.356438057711	0.451666666677
18	45635	11.592145641362	0.321666666671
18	47385	12.23214564137	0.453333333344
18	47442	12.243418848107	0.338333333341
19	779	6.034133601334	0.203333333334
19	2463	6.315123705691	0.305000000001
19	2716	6.318901810222	0.205000000001
19	3542	6.418987530981	0.101666666667
19	3987	6.440800268002	0.406666666668
19	4171	6.468263805842	0.203333333334
19	6523	6.721790372359	0.406666666668
19	6534	6.723901810223	0.305000000001
19	6560	6.72556847689	0.204914279242
19	8188	6.87493047251	0.203333333334
19	8747	6.937320864318	0.203333333334
19	9050	6.964484618269	0.408333333335
19	9681	7.038987530985	0.101666666667
19	11118	7.181578471717	0.306666666668
19	12289	7.281578471717	0.203333333334
19	12446	7.289941583624	0.508333333335
19	12447	7.289941583624	0.203333333334
19	13162	7.36948461827	0.305000000001
19	14132	7.513425358669	0.305000000001
19	14312	7.552368915905	0.305000000001
19	15921	7.857368915906	0.305000000001
19	16825	8.021758692004	0.406666666668
19	17034	8.052889743613	0.205000000001
19	17865	8.178830977096	0.305000000001
19	18573	8.280497643763	0.101666666667
19	18949	8.356223076947	0.203333333334
19	19359	8.43419281819	0.406666666668
19	20153	8.637526151524	0.203333333334
19	21154	8.774293382651	0.101666666667
19	21363	8.793644121681	0.305000000001
19	23782	9.010733243009	0.305000000001
19	24087	9.063511323908	0.408333333335
19	24376	9.079293382652	0.203333333334
19	25158	9.165079336139	0.408333333335
19	26156	9.265177990575	0.406666666668
19	27329	9.403677455016	0.305033333334
19	27654	9.439604649486	0.305000000001
19	27950	9.466161266227	0.510000000002
19	27992	9.468412669473	0.203333333334
19	29620	9.620733243011	0.406666666668
19	29758	9.643196587916	0.101666666667
19	30164	9.667827932894	0.305000000001
19	30950	9.744604649487	0.305000000001
19	34338	10.013677455018	0.305000000001
19	35013	10.049863254584	0.305000000001
19	35227	10.073666078231	0.408333333335
19	35633	10.120478974681	0.408333333335
19	36750	10.227570409387	0.305000000001
19	36947	10.244237076057	0.423333333338
19	37300	10.275332744898	0.406666666668
19	37472	10.322145641348	0.203333333334
19	38239	10.445149191788	0.305000000001
19	38252	10.452570409392	0.406666666668
19	38253	10.452570409392	0.305000000001
19	39087	10.596620388362	0.203333333334
19	39577	10.628670033532	0.101666666667
19	41875	10.901620388363	0.305000000001
19	42002	10.906438057701	0.408333333335
19	42932	11.0353367002	0.305000000001
19	43135	11.055182525123	0.305000000001
19	43260	11.05684919179	0.306666666668
19	43656	11.131440606825	0.408333333335
19	44731	11.311438057702	0.406666666668
19	45707	11.677145641359	0.406666666668
19	47113	12.185478974694	0.406666666668
19	47258	12.211752181434	0.306666666668
20	902	6.035800268001	0.205000000001
20	1525	6.142466934669	0.108333333335
20	1738	6.213457039024	0.203333333334
20	3433	6.418901810222	0.305000000001
20	4629	6.525654197649	0.208333333335
20	5310	6.578263805844	0.313333333336
20	5447	6.621790372359	0.306666666668
20	6577	6.725654197649	0.205000000001
20	7717	6.832235143558	0.413333333336
20	9082	6.972817951604	0.41666666667
20	9189	6.981597139178	0.310000000002
20	9272	6.98660825029	0.205000000001
20	9708	7.040654197652	0.306666666668
20	12070	7.248987530987	0.311666666669
20	12135	7.263830977093	0.305000000001
20	12292	7.281578471717	0.203333333334
20	12433	7.289911805052	0.415000000003
20	12485	7.291608250291	0.205000000001
20	13053	7.352368915905	0.105000000001
20	13936	7.476151284938	0.411666666669
20	15257	7.728425358672	0.520000000004
20	15446	7.757368915906	0.205000000001
20	16018	7.873830977095	0.305000000001
20	16272	7.930092025339	0.315000000003
20	17570	8.152889743613	0.305000000001
20	18872	8.335859484857	0.308333333335
20	19593	8.464556410282	0.311666666669
20	19694	8.485497643764	0.306666666668
20	20814	8.739192818191	0.305000000001
20	23149	8.971844657243	0.31666666667
20	23434	8.98596004932	0.313333333336
20	24697	9.098644121682	0.305000000001
20	25121	9.161161266226	0.205000000001
20	25218	9.168511323909	0.310000000002
20	25305	9.174494599562	0.417748596758
20	25461	9.184494599564	0.308534550246
20	25821	9.226746002818	0.52101275981
20	26776	9.347937982821	0.213333333336
20	28604	9.524066576345	0.310000000002
20	28850	9.54293798282	0.103333333334
20	29267	9.578412669475	0.313333333336
20	30227	9.671161266228	0.308333333335
20	30509	9.708677455017	0.305000000001
20	30772	9.713677455018	0.310000000002
20	31142	9.749863254584	0.208333333335
20	32013	9.823812308015	0.111666666669
20	33682	9.948196587917	0.203333333334
20	34081	9.981999411566	0.31666666667
20	35697	10.12590374272	0.203333333334
20	35959	10.14257040939	0.321666666671
20	36423	10.175332744898	0.306666666668
20	37722	10.355903742726	0.310000000002
20	38173	10.425478974682	0.306666666668
20	39008	10.557570409393	0.410000000002
20	39238	10.599953721696	0.206666666668
20	39858	10.7014380577	0.203333333334
20	40973	10.808287055031	0.211666666669
20	41301	10.83662038837	0.309617021505
20	42462	10.953515858456	0.203333333334
20	42979	11.038670033534	0.308333333335
20	43713	11.13977394016	0.41666666667
20	44846	11.363515858458	0.308333333335
20	45205	11.424771391038	0.520000000004
20	45571	11.580478974693	0.310000000002
20	46441	12.0084188481	0.103333333334
20	46791	12.097145641363	0.318333333337
21	903	6.035800268001	0.205000000001
21	1013	6.047817951599	0.508333333335
21	3601	6.421790372359	0.411666666669
21	3635	6.423457039026	0.108333333335
21	3896	6.435123705695	0.321221895474
21	4043	6.444133601336	0.410000000002
21	6377	6.686597139179	0.421666666671
21	6642	6.728987530983	0.411666666669
21	7734	6.833987530984	0.313333333336
21	7768	6.837235143559	0.418333333337
21	9353	6.991608250291	0.210000000002
21	9767	7.04732086432	0.313333333336
21	9889	7.064484618269	0.508333333335
21	10251	7.084484618273	0.528333333339
21	10273	7.08615128494	0.414554145764
21	12486	7.291608250291	0.205000000001
21	12555	7.294911805053	0.420000000004
21	13061	7.353987530988	0.41666666667
21	13389	7.390654197662	0.312409059279
21	15060	7.669035582575	0.421666666671
21	15226	7.723425358671	0.515000000003
21	16384	7.952889743613	0.105000000001
21	16501	7.967368915908	0.415000000003
21	16947	8.030092025339	0.415000000003
21	18793	8.292164310432	0.418333333337
21	19710	8.487164310431	0.308333333335
21	19916	8.545859484859	0.518333333337
21	20068	8.572889743617	0.420000000004
21	20868	8.747526151526	0.313333333336
21	24221	9.070177990576	0.415000000003
21	24580	9.089293382654	0.41666666667
21	25202	9.167827932894	0.211666666669
21	25247	9.170177990576	0.311666666669
21	25791	9.220733243011	0.515000000003
21	26376	9.285079336143	0.528333333339
21	26413	9.289293382654	0.413333333336
21	29012	9.557937982823	0.423333333338
21	30326	9.678412669475	0.413333333336
21	30804	9.717010788352	0.313333333336
21	30922	9.734066576347	0.520000000004
21	31465	9.777827932896	0.415000000003
21	32488	9.861271316157	0.421666666671
21	33764	9.953196587918	0.411666666669
21	35110	10.058196587919	0.313333333336
21	35296	10.080332744899	0.415000000003
21	35672	10.125344121687	0.41666666667
21	35725	10.127570409387	0.415424768041
21	35821	10.132570409388	0.311666666669
21	37604	10.334237076055	0.411666666669
21	37752	10.35923707606	0.211666666669
21	37932	10.379237076064	0.33333333334
21	37966	10.386999411567	0.518333333337
21	38197	10.43214564135	0.313333333336
21	39207	10.598287055029	0.205000000001
21	40943	10.806438057701	0.308333333335
21	41328	10.837003366867	0.310000000002
21	42839	11.018287055033	0.421666666671
21	43059	11.045336700202	0.315000000003
21	43357	11.063515858458	0.313333333336
21	44279	11.251440606829	0.528333333339
21	44881	11.368515858459	0.313333333336
21	45519	11.536438057707	0.631666666673
21	45926	11.790478974695	0.520000000004
21	47520	12.310478974699	0.531666666673
21	47677	12.328418848104	0.423333333338
22	904	6.035800268001	0.205000000001
22	2767	6.321790372359	0.311666666669
22	3078	6.34746693467	0.313333333336
22	3434	6.418901810222	0.305000000001
22	4281	6.487114169568	0.203333333334
22	4513	6.521790372359	0.206666666668
22	5501	6.623901810223	0.205000000001
22	6343	6.681597139178	0.41666666667
22	6665	6.73065419765	0.413333333336
22	7703	6.828987530983	0.308333333335
22	8268	6.881597139178	0.210000000002
22	8407	6.889941583624	0.108333333335
22	9680	7.038987530985	0.305000000001
22	10057	7.077817951605	0.521666666671
22	10193	7.07991180505	0.205000000001
22	12487	7.291608250291	0.205000000001
22	13043	7.352320864321	0.415000000003
22	13221	7.376151284938	0.311666666669
22	13351	7.387320864328	0.309075725945
22	14450	7.557368915906	0.310000000002
22	14803	7.628425358672	0.420000000004
22	15632	7.821758692004	0.206666666668
22	15949	7.86070224924	0.308333333335
22	17197	8.077164310429	0.203333333334
22	17704	8.156223076947	0.308333333335
22	18218	8.235859484857	0.208333333335
22	19739	8.490497643765	0.311666666669
22	20039	8.567889743616	0.415000000003
22	20815	8.739192818191	0.305000000001
22	21901	8.861844657241	0.206666666668
22	24065	9.062827932893	0.106666666668
22	24579	9.089293382654	0.41666666667
22	24890	9.125733243012	0.420000000004
22	26190	9.268511323909	0.410000000002
22	26308	9.278412669475	0.521666666671
22	26392	9.287626715987	0.411666666669
22	27850	9.451271316155	0.31666666667
22	28541	9.519066576344	0.305000000001
22	30197	9.669494599561	0.306666666668
22	30309	9.676746002808	0.411666666669
22	30378	9.68477139103	0.406666666668
22	31096	9.747937982821	0.308333333335
22	31768	9.813677455018	0.410000000002
22	31869	9.820478974681	0.108333333335
22	32724	9.871999411564	0.206666666668
22	33046	9.912010788351	0.203333333334
22	33788	9.954863254585	0.413333333336
22	35087	10.054863254585	0.310000000002
22	35239	10.075332744898	0.206666666668
22	36819	10.230903742721	0.410000000002
22	36859	10.234237076055	0.311666666669
22	38155	10.423812308015	0.305000000001
22	38292	10.457570409393	0.310000000002
22	38411	10.477570409397	0.431666666673
22	38495	10.498104724366	0.406666666668
22	39208	10.598287055029	0.205000000001
22	41244	10.833670033533	0.103333333334
22	41366	10.838670033534	0.311666666669
22	42036	10.911620388365	0.315000000003
22	43313	11.060182525124	0.310000000002
22	44258	11.244773940161	0.521666666671
22	44756	11.326438057705	0.421666666671
22	45249	11.465182525125	0.410000000002
22	45552	11.577145641359	0.306666666668
22	46403	11.99881230803	0.220000000004
22	47276	12.213418848101	0.308333333335
23	921	6.037466934668	0.206666666668
23	1787	6.216790372358	0.206666666668
23	3050	6.344133601336	0.310000000002
23	3762	6.428901810224	0.315000000003
23	4593	6.523987530982	0.206666666668
23	4721	6.529196300244	0.203333333334
23	5280	6.573263805843	0.308333333335
23	6711	6.733901810225	0.315000000003
23	7692	6.828901810224	0.513778104533
23	7723	6.832320864317	0.311666666669
23	8746	6.937320864318	0.203333333334
23	8867	6.938987530985	0.205000000001
23	9188	6.981597139178	0.310000000002
23	10227	7.082817951606	0.526666666672
23	11113	7.181578471717	0.103333333334
23	11362	7.191578471719	0.31666666667
23	12524	7.293274916958	0.206666666668
23	12604	7.296608250292	0.515000000003
23	13867	7.464035582574	0.21666666667
23	13986	7.482817951606	0.418333333337
23	14762	7.620092025337	0.411666666669
23	15972	7.864035582574	0.311666666669
23	16282	7.933425358673	0.318333333337
23	17804	8.166223076949	0.318333333337
23	17866	8.178830977096	0.305000000001
23	18462	8.265960049316	0.203333333334
23	18890	8.340859484858	0.313333333336
23	19173	8.383830977097	0.205000000001
23	19564	8.461223076948	0.308333333335
23	20453	8.672626715984	0.203333333334
23	20867	8.747526151526	0.313333333336
23	23204	8.975177990577	0.320000000004
23	24496	9.084293382653	0.208333333335
23	24837	9.117399909677	0.411666666669
23	25273	9.171844657243	0.313333333336
23	26358	9.283412669476	0.526666666672
23	28034	9.471161266228	0.515000000003
23	28387	9.505344121683	0.101666666667
23	28926	9.547937982821	0.413333333336
23	29358	9.585079336143	0.320000000004
23	29695	9.629066576346	0.415000000003
23	29943	9.656271316156	0.21666666667
23	30270	9.674494599562	0.311666666669
23	31111	9.748196587917	0.206666666668
23	33785	9.954863254585	0.210000000002
23	34120	9.9853327449	0.320000000004
23	34340	10.013677455018	0.305000000001
23	35761	10.129237076054	0.206666666668
23	35832	10.133812308017	0.421666666671
23	35979	10.144237076057	0.323333333338
23	36473	10.181999411566	0.313333333336
23	37476	10.322145641348	0.203333333334
23	37753	10.35923707606	0.313333333336
23	39017	10.55923707606	0.411666666669
23	39240	10.599953721696	0.206666666668
23	40462	10.732003366866	0.205000000001
23	42003	10.906438057701	0.408333333335
23	42570	10.961849191791	0.211666666669
23	42805	11.009953721698	0.413333333336
23	43037	11.043670033535	0.313333333336
23	43811	11.15684919179	0.101666666667
23	44272	11.249773940162	0.526666666672
23	45212	11.433104724373	0.528333333339
23	45739	11.685478974694	0.415000000003
23	46917	12.123418848103	0.218333333337
23	47517	12.308812308032	0.530000000006
24	924	6.037466934668	0.206666666668
24	1807	6.217235143555	0.103333333334
24	2464	6.315123705691	0.305000000001
24	4063	6.445800268003	0.411666666669
24	5546	6.62556847689	0.206666666668
24	5806	6.635123705695	0.320000000004
24	6733	6.733987530984	0.41666666667
24	7266	6.781597139178	0.51666666667
24	8719	6.927320864316	0.406666666668
24	9231	6.984930472512	0.313333333336
24	9710	7.040654197652	0.306666666668
24	10218	7.081578471717	0.206666666668
24	10546	7.094941583625	0.313333333336
24	10613	7.099911805054	0.54376052012
24	12526	7.293274916958	0.206666666668
24	13073	7.355654197655	0.418333333337
24	13438	7.393987530996	0.315742392613
24	13987	7.482817951606	0.418333333337
24	14792	7.625092025338	0.41666666667
24	15102	7.675702249243	0.428333333339
24	15673	7.830092025339	0.215000000003
24	16455	7.96070224924	0.408333333335
24	17770	8.162889743615	0.315000000003
24	18822	8.295497643766	0.421666666671
24	19156	8.38216431043	0.203333333334
24	19498	8.445859484859	0.418333333337
24	19845	8.537526151524	0.103333333334
24	20439	8.669556410283	0.51666666667
24	21158	8.774815497587	0.305000000001
24	21996	8.870177990576	0.215000000003
24	24608	9.090960049321	0.418333333337
24	24873	9.122399909678	0.41666666667
24	25274	9.171844657243	0.313333333336
24	25522	9.189293382654	0.313333333336
24	26177	9.267827932894	0.311666666669
24	26407	9.288412669477	0.531666666673
24	26777	9.347937982821	0.213333333336
24	28565	9.520733243011	0.306666666668
24	30386	9.685079336143	0.420000000004
24	30774	9.713677455018	0.310000000002
24	31423	9.774494599562	0.411666666669
24	32556	9.867937982825	0.428333333339
24	32823	9.880332744899	0.215000000003
24	33826	9.958196587919	0.41666666667
24	34496	10.027145641349	0.315000000003
24	35167	10.064863254587	0.320000000004
24	35737	10.128677455021	0.420000000004
24	35846	10.134237076055	0.313333333336
24	36751	10.227570409387	0.305000000001
24	37381	10.2853327449	0.41666666667
24	37750	10.35923707606	0.211666666669
24	37946	10.382570409398	0.336666666674
24	38175	10.425478974682	0.306666666668
24	39242	10.599953721696	0.206666666668
24	39992	10.709771391035	0.211666666669
24	40334	10.730336700199	0.203333333334
24	40991	10.809953721698	0.213333333336
24	41209	10.832003366866	0.101666666667
24	43426	11.070182525126	0.320000000004
24	44290	11.254773940163	0.531666666673
24	44864	11.365182525125	0.310000000002
24	45528	11.544771391042	0.640000000008
24	45560	11.578812308026	0.308333333335
24	47297	12.217145641367	0.438333333341
24	47711	12.335085514772	0.430000000006
25	941	6.039133601335	0.208333333335
25	2223	6.254133601338	0.220000000004
25	2904	6.330123705694	0.320000000004
25	3584	6.420654197648	0.103333333334
25	4303	6.49159713918	0.226666666672
25	5114	6.553901810229	0.440000000008
25	7756	6.835654197651	0.315000000003
25	7801	6.838457039029	0.523333333338
25	7901	6.843901810227	0.425000000005
25	9769	7.04732086432	0.313333333336
25	10634	7.101597139182	0.430000000006
25	10787	7.124484618281	0.568333333347
25	12201	7.272320864325	0.335000000007
25	12527	7.293274916958	0.206666666668
25	12644	7.299911805054	0.425000000005
25	12850	7.321608250297	0.540000000008
25	13539	7.405654197665	0.327409059282
25	14150	7.517817951613	0.453333333344
25	14440	7.555702249239	0.308333333335
25	14944	7.656758692011	0.448333333343
25	16761	7.990702249246	0.438333333341
25	17091	8.060092025345	0.445000000009
25	18112	8.191223076954	0.343333333342
25	18136	8.195497643766	0.321666666671
25	18275	8.248412669469	0.508333333335
25	19127	8.379556410285	0.226666666672
25	19608	8.46752615153	0.440000000008
25	19755	8.492164310432	0.313333333336
25	22016	8.872526151531	0.438333333341
25	23760	9.007626715991	0.335000000007
25	24728	9.101844657249	0.446666666676
25	25088	9.154066576351	0.448333333343
25	26053	9.265079336139	0.508333333335
25	26463	9.298511323915	0.440000000008
25	26504	9.312626715992	0.436666666674
25	26592	9.325079336151	0.568333333347
25	28325	9.494494599566	0.538333333341
25	29412	9.591271316163	0.456666666678
25	29672	9.627010788354	0.223333333338
25	29819	9.64652992125	0.105000000001
25	31097	9.747937982821	0.308333333335
25	31119	9.74906657635	0.535000000007
25	31585	9.791161266232	0.428333333339
25	32376	9.853196587918	0.108333333335
25	34567	10.030344121688	0.321666666671
25	35496	10.111999411572	0.446666666676
25	36341	10.16547897469	0.453333333344
25	36938	10.24257040939	0.320000000004
25	37163	10.262570409394	0.441666666675
25	37448	10.308666078238	0.440000000008
25	38199	10.43214564135	0.313333333336
25	38443	10.485903742732	0.440000000008
25	39243	10.599953721696	0.206666666668
25	39817	10.682570409398	0.535000000007
25	41403	10.840336700201	0.313333333336
25	41645	10.858515858457	0.108333333335
25	42136	10.929771391039	0.431666666673
25	43111	11.051620388373	0.455000000011
25	43391	11.067003366873	0.336666666674
25	44598	11.276849191794	0.221666666671
25	44708	11.291440606837	0.568333333347
25	45097	11.388104724384	0.48333333335
25	45950	11.805478974698	0.535000000007
25	47277	12.213418848101	0.308333333335
26	943	6.039133601335	0.208333333335
26	1789	6.216790372358	0.206666666668
26	2833	6.32586296691	0.203333333334
26	3065	6.345800268003	0.311666666669
26	3800	6.430568476891	0.31666666667
26	4835	6.533901810225	0.115000000003
26	5344	6.586597139179	0.321666666671
26	5663	6.628987530983	0.311666666669
26	6671	6.731790372361	0.41666666667
26	6728	6.733987530984	0.213333333336
26	6732	6.733987530984	0.20479123074
26	8038	6.864484618269	0.308333333335
26	8256	6.881151284939	0.209554145763
26	9335	6.991578471719	0.11666666667
26	10548	7.094941583625	0.313333333336
26	10871	7.152320864321	0.215000000003
26	11152	7.183245138384	0.105000000001
26	12569	7.294941583625	0.208333333335
26	13287	7.382817951606	0.318333333337
26	13884	7.467368915908	0.220000000004
26	14783	7.623425358671	0.415000000003
26	15024	7.664035582574	0.111666666669
26	16288	7.93509202534	0.320000000004
26	17140	8.066223076949	0.218333333337
26	17992	8.180497643763	0.306666666668
26	18901	8.344192818192	0.31666666667
26	19155	8.38216431043	0.203333333334
26	19652	8.472889743617	0.320000000004
26	20878	8.749192818193	0.315000000003
26	22352	8.889293382654	0.21666666667
26	23234	8.976844657244	0.321666666671
26	24103	9.065079336139	0.308333333335
26	24201	9.07007933614	0.211568012233
26	24554	9.087626715987	0.211666666669
26	24861	9.120733243011	0.415000000003
26	26194	9.269494599561	0.313333333336
26	26484	9.305434530234	0.406666666668
26	27579	9.427399909679	0.213333333336
26	28082	9.474494599562	0.111666666669
26	29028	9.55960464949	0.425000000005
26	29268	9.578412669475	0.313333333336
26	29585	9.617010788352	0.213333333336
26	29981	9.65960464949	0.220000000004
26	32379	9.853196587918	0.311666666669
26	33806	9.956529921252	0.211666666669
26	34144	9.986999411567	0.321666666671
26	34354	10.015344121685	0.306666666668
26	34556	10.029237076054	0.208333333335
26	35180	10.066755102448	0.203333333334
26	35515	10.118812308014	0.406666666668
26	35771	10.130344121688	0.207773712302
26	35857	10.135478974684	0.423333333338
26	36491	10.1853327449	0.31666666667
26	37052	10.254237076059	0.208333333335
26	38308	10.460903742727	0.313333333336
26	39274	10.601620388363	0.208333333335
26	40333	10.730336700199	0.203333333334
26	40942	10.806438057701	0.308333333335
26	42258	10.937003366867	0.206666666668
26	42588	10.963515858458	0.213333333336
26	42847	11.0199537217	0.423333333338
26	42900	11.031440606825	0.308333333335
26	44419	11.268515858459	0.213333333336
26	45219	11.436438057707	0.531666666673
26	45388	11.483812308027	0.213333333336
26	46940	12.126752181437	0.221666666671
26	47251	12.210478974699	0.431666666673
26	47647	12.32508551477	0.115000000003
27	946	6.039133601335	0.208333333335
27	1129	6.113457039024	0.103333333334
27	3613	6.422235143556	0.308333333335
27	4123	6.452466934671	0.418333333337
27	5632	6.628901810224	0.210000000002
27	5908	6.638987530985	0.321666666671
27	6354	6.683263805845	0.418333333337
27	6900	6.738457039029	0.423333333338
27	7580	6.801758692	0.406666666668
27	8725	6.928987530983	0.408333333335
27	9083	6.972817951604	0.41666666667
27	9289	6.988263805846	0.31666666667
27	9785	7.048987530987	0.315000000003
27	10267	7.084911805051	0.210000000002
27	10602	7.098274916959	0.31666666667
27	12140	7.26398753099	0.326666666672
27	12468	7.291578471719	0.213333333336
27	12571	7.294941583625	0.208333333335
27	14030	7.489484618274	0.425000000005
27	14541	7.575702249243	0.328333333339
27	14642	7.615092025336	0.406666666668
27	14841	7.640092025341	0.431666666673
27	16538	7.974035582576	0.421666666671
27	17816	8.167889743616	0.320000000004
27	18082	8.187164310431	0.313333333336
27	18280	8.248511323905	0.203333333334
27	18291	8.250177990572	0.22265183905
27	18780	8.291669713865	0.305000000001
27	19740	8.490497643765	0.311666666669
27	20056	8.57122307695	0.418333333337
27	20281	8.655177990573	0.203333333334
27	20838	8.742526151525	0.308333333335
27	23682	9.000960049323	0.328333333339
27	24367	9.078511323911	0.220000000004
27	25022	9.137399909681	0.431666666673
27	25290	9.173412669474	0.41666666667
27	25579	9.197626715989	0.321666666671
27	25983	9.258643856006	0.203333333334
27	26215	9.271161266228	0.315000000003
27	28605	9.524066576345	0.310000000002
27	28975	9.552937982822	0.418333333337
27	29229	9.576161266229	0.213333333336
27	29605	9.619966176172	0.305000000001
27	30039	9.665332744896	0.203355555556
27	30438	9.691746002811	0.426666666672
27	31327	9.767937982825	0.328333333339
27	31797	9.815344121685	0.411666666669
27	32519	9.86319658792	0.321666666671
27	34410	10.022010788353	0.313333333336
27	34484	10.02590374272	0.103333333334
27	34571	10.030478974683	0.318333333337
27	34822	10.04257040939	0.221666666671
27	35191	10.068196587921	0.323333333338
27	35373	10.090332744901	0.221666666671
27	37200	10.265903742728	0.220000000004
27	38208	10.433812308017	0.315000000003
27	38346	10.467570409395	0.320000000004
27	39276	10.601620388363	0.208333333335
27	40013	10.711438057702	0.213333333336
27	41400	10.840336700201	0.110000000002
27	41462	10.843670033535	0.31666666667
27	42827	11.014953721699	0.418333333337
27	43454	11.07351585846	0.323333333338
27	43714	11.13977394016	0.41666666667
27	44792	11.346438057709	0.441666666675
27	45261	11.466849191792	0.411666666669
27	45584	11.58214564136	0.311666666669
27	47326	12.222145641368	0.443333333342
27	47400	12.235085514772	0.330000000006
28	955	6.040800268002	0.210000000002
28	2933	6.332235143558	0.218333333337
28	3707	6.42679037236	0.41666666667
28	4079	6.44746693467	0.413333333336
28	5291	6.57493047251	0.310000000002
28	5795	6.633987530984	0.31666666667
28	6681	6.732235143558	0.313333333336
28	6929	6.740123705696	0.425000000005
28	7704	6.828987530983	0.308333333335
28	8313	6.884930472512	0.213333333336
28	9709	7.040654197652	0.306666666668
28	10462	7.091151284941	0.535000000007
28	11258	7.188245138385	0.313333333336
28	12106	7.255654197655	0.318333333337
28	12603	7.296608250292	0.210000000002
[...]
42	8916	6.942320864319	0.208333333335
42	10192	7.07991180505	0.205000000001
42	10506	7.093263805847	0.421666666671
42	10667	7.10327491696	0.321666666671
42	13139	7.367320864324	0.430000000006
42	13406	7.391578471719	0.313333333336
42	13522	7.40327491696	0.31666666667
42	14090	7.501151284943	0.436666666674
42	14867	7.645092025342	0.436666666674
42	15011	7.662368915907	0.110000000002
42	15083	7.672368915909	0.425000000005
42	16994	8.046758692009	0.431666666673
42	17848	8.176223076951	0.328333333339
42	18165	8.205497643768	0.331666666673
42	19160	8.382889743619	0.230000000006
42	19540	8.457526151528	0.430000000006
42	19711	8.487164310431	0.308333333335
42	21721	8.849192818193	0.415000000003
42	22446	8.896746002812	0.140000000008
42	24544	9.086844657246	0.431666666673
42	24555	9.087626715987	0.211666666669
42	24742	9.10262671599	0.430000000006
42	25045	9.142399909682	0.436666666674
42	25605	9.201914629732	0.305000000001
42	26282	9.276844657244	0.418333333337
42	26296	9.277827932896	0.321666666671
42	26674	9.335733243014	0.121666666671
42	28040	9.471271316159	0.336666666674
42	30209	9.669738750804	0.305000000001
42	30228	9.671161266228	0.308333333335
42	30485	9.70341266948	0.438333333341
42	30864	9.725344121687	0.321666666671
42	32432	9.856529921252	0.315000000003
42	32518	9.86319658792	0.423591938434
42	34737	10.038677455023	0.330000000006
42	35422	10.096999411569	0.431666666673
42	36146	10.150478974687	0.438333333341
42	36469	10.181529921257	0.436666666674
42	36915	10.239237076056	0.418333333337
42	37421	10.296999411569	0.428333333339
42	37540	10.327145641349	0.208333333335
42	37644	10.342010788357	0.419440378971
42	38327	10.464237076061	0.418333333337
42	39808	10.674237076063	0.526666666672
42	40028	10.711620388365	0.318333333337
42	41289	10.8353367002	0.308333333335
42	41693	10.863107273498	0.140000000008
42	42132	10.928287055035	0.430182330669
42	42168	10.931620388369	0.335000000007
42	43038	11.043670033535	0.313333333336
42	44133	11.186849191796	0.436666666674
42	44825	11.361438057712	0.456666666678
42	44972	11.378104724382	0.322922199259
42	45138	11.392145641362	0.121666666671
42	47416	12.237145641371	0.458333333345
42	47678	12.328418848104	0.423333333338
43	1598	6.149133601337	0.318333333337
43	2903	6.330123705694	0.320000000004
43	3169	6.365800268007	0.331666666673
43	4054	6.445568476894	0.331666666673
43	5390	6.601597139182	0.336666666674
43	5807	6.635123705695	0.320000000004
43	6046	6.650568476895	0.231666666673
43	6640	6.728987530983	0.208333333335
43	7021	6.745654197653	0.428333333339
43	7586	6.80281795161	0.246666666676
43	7891	6.842320864319	0.108333333335
43	8922	6.942368915903	0.305000000001
43	9372	6.993263805847	0.321666666671
43	9550	7.004941583627	0.223333333338
43	10703	7.108245138389	0.23333333334
43	12186	7.270654197658	0.33333333334
43	12507	7.293245138386	0.215000000003
43	13535	7.404941583627	0.318333333337
43	14045	7.491151284941	0.426666666672
43	14311	7.552368915905	0.305000000001
43	14529	7.574035582576	0.326666666672
43	14842	7.640092025341	0.431666666673
43	17021	8.05175869201	0.436666666674
43	17252	8.080497643763	0.206666666668
43	17971	8.179556410285	0.331666666673
43	19226	8.387164310431	0.208333333335
43	19547	8.459192818195	0.431666666673
43	19715	8.48788974362	0.335000000007
43	21072	8.764192818196	0.330000000006
43	23467	8.987626715987	0.111666666669
43	23711	9.00341266948	0.246666666676
43	23759	9.007626715991	0.335000000007
43	24646	9.093511323914	0.438333333341
43	25023	9.137399909681	0.431666666673
43	25366	9.178511323911	0.320000000004
43	25376	9.179494599563	0.223333333338
43	26675	9.335733243014	0.121666666671
43	29237	9.57627131616	0.441666666675
43	29316	9.582827932897	0.220000000004
43	30450	9.693412669478	0.428333333339
43	30876	9.727010788354	0.323333333338
43	31291	9.764604649491	0.325000000005
43	33083	9.915344121685	0.206666666668
43	33919	9.969863254588	0.428333333339
43	35069	10.053812308021	0.341666666675
43	35141	10.061529921253	0.31666666667
43	35468	10.103666078237	0.438333333341
43	35940	10.140903742723	0.320000000004
43	36739	10.227145641349	0.108333333335
43	36942	10.243677455024	0.321107045638
43	37427	10.300332744903	0.431666666673
43	37810	10.365903742728	0.320000000004
43	39027	10.565903742728	0.418333333337
43	40030	10.711620388365	0.318333333337
43	40530	10.7353367002	0.208333333335
43	40964	10.808104724368	0.310000000002
43	42641	10.969773940166	0.246666666676
43	42948	11.03662038837	0.440000000008
43	43061	11.045336700202	0.315000000003
43	43408	11.068515858459	0.318333333337
43	44980	11.378515858461	0.323333333338
43	45139	11.392145641362	0.121666666671
43	45264	11.469771391047	0.565000000013
43	47374	12.230085514771	0.325000000005
43	47757	12.345478974706	0.56666666668
44	1635	6.152466934671	0.321666666671
44	1853	6.220123705692	0.210000000002
44	2036	6.232235143558	0.118333333337
44	4099	6.450123705698	0.135000000007
44	5246	6.56413360134	0.530000000006
44	7081	6.755654197655	0.438333333341
44	7520	6.794930472514	0.530000000006
44	8021	6.860568476897	0.441666666675
44	8919	6.942320864319	0.421666666671
44	9141	6.979484618272	0.423333333338
44	9461	6.998263805848	0.326666666672
44	9549	7.004941583627	0.223333333338
44	9850	7.057320864322	0.323333333338
44	12543	7.294484618275	0.230000000006
44	12830	7.318245138391	0.443333333342
44	13483	7.398245138387	0.320000000004
44	13494	7.399911805054	0.462590940736
44	13554	7.408274916961	0.321666666671
44	14889	7.650092025343	0.441666666675
44	15172	7.695702249247	0.448333333343
44	16421	7.956758692011	0.341666666675
44	16747	7.989035582579	0.436666666674
44	17737	8.159556410281	0.311666666669
44	18823	8.295497643766	0.421666666671
44	19027	8.364192818196	0.336666666674
44	19254	8.388830977098	0.210000000002
44	19968	8.552526151527	0.118333333337
44	20590	8.682889743619	0.530000000006
44	23308	8.980177990578	0.121666666671
44	23643	8.998511323915	0.343333333342
44	24876	9.122626715994	0.45000000001
44	25066	9.147399909683	0.441666666675
44	25380	9.180079336142	0.423333333338
44	25400	9.18116126623	0.225000000005
44	25644	9.209293382658	0.33333333334
44	26966	9.364604649491	0.230000000006
44	29139	9.569494599561	0.206666666668
44	30914	9.732010788355	0.328333333339
44	31120	9.74906657635	0.535000000007
44	31739	9.813412669482	0.548333333343
44	32893	9.887937982829	0.448333333343
44	33613	9.94257040939	0.121666666671
44	33640	9.944237076057	0.117551185402
44	34050	9.97986325459	0.438333333341
44	34319	10.008666078238	0.343333333342
44	35793	10.130903742721	0.208333333335
44	35819	10.132570409388	0.423892954371
44	36022	10.147570409391	0.101666666667
44	36126	10.14881230802	0.436666666674
44	36387	10.169237076062	0.123333333338
44	36537	10.193196587926	0.448333333343
44	36590	10.205332744904	0.336666666674
44	38235	10.442145641352	0.323333333338
44	40069	10.714953721699	0.321666666671
44	40564	10.737003366867	0.210000000002
44	41000	10.811438057702	0.313333333336
44	41129	10.826620388368	0.230000000006
44	42982	11.038670033534	0.308333333335
44	43751	11.146440606828	0.423333333338
44	44166	11.198515858465	0.448333333343
44	45049	11.383515858462	0.328333333339
44	45403	11.486438057717	0.581666666683
44	45951	11.805478974698	0.535000000007
45	1637	6.152466934671	0.321666666671
45	2902	6.330123705694	0.320000000004
45	4213	6.474133601342	0.440000000008
45	4909	6.537235143559	0.423333333338
45	6498	6.713263805851	0.448333333343
45	6986	6.74345703903	0.428333333339
45	7804	6.838901810226	0.420000000004
45	7924	6.843987530986	0.323333333338
45	8014	6.855654197655	0.538333333341
45	8581	6.901597139182	0.230000000006
45	10708	7.108274916961	0.326666666672
45	10769	7.117817951613	0.561666666679
45	10896	7.157320864322	0.423333333338
45	12556	7.294911805053	0.420000000004
45	13556	7.408274916961	0.321666666671
45	13990	7.483987530994	0.546666666676
45	14102	7.503987530998	0.425742392615
45	14629	7.597817951609	0.53333333334
45	14900	7.653425358677	0.445000000009
45	15139	7.682368915911	0.435000000007
45	17042	8.053425358677	0.438333333341
45	17227	8.079035582577	0.526666666672
45	18174	8.212164310436	0.338333333341
45	18437	8.264192818196	0.236666666674
45	18727	8.28788974362	0.440000000008
45	19796	8.500497643767	0.321666666671
45	20129	8.599556410289	0.446666666676
45	21751	8.857526151528	0.423333333338
45	24647	9.093511323914	0.438333333341
45	25077	9.150733243017	0.445000000009
45	25794	9.220960049327	0.548333333343
45	26334	9.28116126623	0.325000000005
45	26361	9.283511323912	0.425000000005
45	26495	9.309293382658	0.43333333334
45	26535	9.318412669483	0.561666666679
45	28220	9.482937982828	0.348333333343
45	30396	9.686161266231	0.323333333338
45	30931	9.737399909681	0.523333333338
45	31652	9.80341266948	0.538333333341
45	32111	9.832010788355	0.428333333339
45	32730	9.872937982826	0.43333333334
45	34835	10.043812308019	0.331666666673
45	34864	10.045478974686	0.336801519669
45	35286	10.07986325459	0.538333333341
45	35467	10.103666078237	0.235000000007
45	35478	10.105332744904	0.440000000008
45	36527	10.191529921259	0.446666666676
45	36937	10.24257040939	0.320000000004
45	36957	10.245903742724	0.425000000005
45	38368	10.470903742729	0.425000000005
45	38982	10.542145641352	0.423333333338
45	39809	10.674237076063	0.526666666672
45	40086	10.716620388366	0.323333333338
45	40468	10.733104724373	0.235000000007
45	40822	10.762145641356	0.508333333335
45	41522	10.848670033536	0.321666666671
45	42350	10.943287055038	0.346666666676
45	43062	11.045336700202	0.315000000003
45	44163	11.196849191798	0.446666666676
45	44674	11.284773940169	0.561666666679
45	44996	11.379771391049	0.475000000015
45	45376	11.483515858462	0.428333333339
45	45808	11.778812308026	0.508333333335
45	45932	11.795478974696	0.525000000005
45	47732	12.338418848106	0.43333333334
46	1651	6.154133601338	0.323333333338
46	2403	6.272466934675	0.238333333341
46	2874	6.328457039027	0.318333333337
46	4942	6.538901810226	0.425000000005
46	5993	6.645123705697	0.330000000006
46	6080	6.655654197655	0.338333333341
46	6509	6.716597139185	0.451666666677
46	6937	6.740568476893	0.321666666671
46	7969	6.84732086432	0.326666666672
46	9539	7.004930472516	0.33333333334
46	9589	7.009941583628	0.228333333339
46	10784	7.122817951614	0.56666666668
46	10872	7.152320864321	0.418333333337
46	11517	7.19657847172	0.321666666671
46	13386	7.389911805052	0.311666666669
46	13407	7.391578471719	0.454257607401
46	13563	7.409941583628	0.323333333338
46	13972	7.480702249244	0.23333333334
46	14087	7.499484618276	0.435000000007
46	15432	7.756758692011	0.548333333343
46	16152	7.87736891591	0.325000000005
46	16422	7.956758692011	0.341666666675
46	16628	7.978830977096	0.105000000001
46	18777	8.291223076954	0.443333333342
46	19053	8.36752615153	0.340000000008
46	20125	8.5988309771	0.420000000004
46	20132	8.602889743623	0.45000000001
46	21864	8.859192818195	0.425000000005
46	22477	8.898767863566	0.406666666668
46	23626	8.996844657248	0.341666666675
46	24883	9.124293382661	0.451666666677
46	25432	9.182827932897	0.226666666672
46	25956	9.254066576351	0.548333333343
46	26455	9.296844657248	0.438333333341
46	26462	9.298511323915	0.422551274597
46	26577	9.323412669484	0.56666666668
46	28279	9.487937982829	0.353333333344
46	29855	9.64906657635	0.435000000007
46	30237	9.671271316159	0.231666666673
46	30652	9.712145641346	0.406711111112
46	30780	9.713812308013	0.448732971874
46	31570	9.789494599565	0.426666666672
46	31764	9.813677455018	0.105000000001
46	32072	9.828677455021	0.425000000005
46	32813	9.87986325459	0.338333333341
46	34315	10.006999411571	0.341666666675
46	35111	10.058196587919	0.313333333336
46	36597	10.206999411571	0.338333333341
46	36924	10.240903742723	0.318333333337
46	37140	10.260903742727	0.440000000008
46	38436	10.484237076065	0.438333333341
46	38969	10.537145641351	0.418333333337
46	39053	10.574237076063	0.426666666672
46	39378	10.608104724368	0.110000000002
46	40100	10.718287055033	0.325000000005
46	42390	10.945336700202	0.215000000003
46	42412	10.948287055039	0.351666666677
46	42428	10.949953721706	0.422950354841
46	43358	11.063515858458	0.313333333336
46	44701	11.28977394017	0.56666666668
46	45322	11.478515858461	0.423333333338
46	45418	11.488104724384	0.58333333335
46	45800	11.705478974698	0.435000000007
46	47005	12.136752181439	0.231666666673
46	47099	12.158812308042	0.380000000016
47	1737	6.213457039024	0.203333333334
47	2085	6.239133601335	0.408333333335
47	3181	6.366597139175	0.101666666667
47	4545	6.522320864315	0.205000000001
47	4578	6.523901810223	0.410000000002
47	5003	6.542466934669	0.508333333335
47	6544	6.723987530982	0.203333333334
47	7655	6.823457039026	0.508333333335
47	7658	6.82556847689	0.406666666668
47	9055	6.966151284936	0.410000000002
47	9107	6.976597139177	0.305000000001
47	10810	7.142320864319	0.408333333335
47	11337	7.189941583624	0.408333333335
47	12288	7.281578471717	0.406666666668
47	12778	7.311758692002	0.103333333334
47	12982	7.345654197653	0.408333333335
47	13293	7.383245138384	0.305000000001
47	14066	7.494941583625	0.408333333335
47	14533	7.574484618271	0.510000000002
47	14939	7.655702249239	0.408333333335
47	16242	7.921758692004	0.306666666668
47	16439	7.959035582573	0.406666666668
47	17421	8.129192818189	0.101666666667
47	18322	8.25455641028	0.101666666667
47	18429	8.262889743615	0.415000000003
47	18619	8.28216431043	0.408333333335
47	19683	8.483830977097	0.305000000001
47	21475	8.809066576342	0.103333333334
47	21725	8.850733243017	0.416540424827
47	23012	8.963511323908	0.308333333335
47	24421	9.080960049319	0.408333333335
47	25170	9.165177990575	0.306666666668
47	25185	9.166746002806	0.410000000002
47	26364	9.284293382653	0.408333333335
47	26841	9.362827932893	0.406666666668
47	28852	9.54293798282	0.408333333335
47	29177	9.571746002807	0.306666666668
47	29631	9.622399909678	0.408333333335
47	30165	9.667827932894	0.305000000001
47	30625	9.710344121684	0.306666666668
47	30959	9.744863254583	0.203333333334
47	32266	9.847937982821	0.408333333335
47	33930	9.970332744897	0.101666666667
47	34040	9.978666078232	0.313333333336
47	35507	10.115344121685	0.406666666668
47	35516	10.118812308014	0.406666666668
47	35696	10.12590374272	0.203333333334
47	35980	10.144237076057	0.323333333338
47	36166	10.151529921251	0.406666666668
47	37456	10.316440606822	0.406666666668
47	37683	10.352570409392	0.306666666668
47	38912	10.527145641349	0.408333333335
47	38995	10.554237076059	0.406666666668
47	40894	10.801620388363	0.408333333335
47	40941	10.806438057701	0.308333333335
47	41203	10.832003366866	0.305000000001
47	42776	11.00328705503	0.406666666668
47	42790	11.008104724368	0.103333333334
47	43649	11.129773940158	0.406666666668
47	43663	11.133107273492	0.410000000002
47	43687	11.137003366867	0.406666666668
47	43807	11.15684919179	0.406666666668
47	44820	11.360182525124	0.305000000001
47	45711	11.678812308026	0.408333333335
47	46316	11.947184685807	0.406666666668
47	46760	12.085478974694	0.306666666668
47	47567	12.315085514768	0.410000000002
48	1855	6.220123705692	0.210000000002
48	2167	6.24746693467	0.41666666667
48	4793	6.532235143558	0.418333333337
48	5127	6.555800268005	0.521666666671
48	6151	6.66948461827	0.113333333336
48	6433	6.696597139181	0.431666666673
48	6991	6.743901810227	0.325000000005
48	7006	6.745568476894	0.42824761258
48	7026	6.747235143561	0.43211143787
48	7693	6.828901810224	0.308247612576
48	8370	6.888263805846	0.21666666667
48	8989	6.948987530987	0.215000000003
48	11610	7.201578471721	0.326666666672
48	12700	7.30327491696	0.521666666671
48	13150	7.368987530991	0.431666666673
48	13367	7.388245138385	0.310000000002
48	14099	7.50327491696	0.41666666667
48	14613	7.591151284941	0.526666666672
48	15147	7.684035582578	0.436666666674
48	15342	7.743425358675	0.535000000007
48	16139	7.875702249243	0.323333333338
48	16305	7.941758692008	0.326666666672
48	18524	8.272889743617	0.425000000005
48	18770	8.290497643765	0.41666666667
48	18931	8.352526151527	0.325000000005
48	19774	8.495497643766	0.31666666667
48	20087	8.582889743619	0.430000000006
48	21635	8.833993018471	0.406666666668
48	21736	8.852526151527	0.418333333337
48	21986	8.87007933614	0.113333333336
48	23380	8.983511323912	0.328333333339
48	24218	9.070177990576	0.211666666669
48	24767	9.105960049324	0.43333333334
48	25876	9.240733243015	0.535000000007
48	26473	9.30262671599	0.426666666672
48	27947	9.466161266227	0.103333333334
48	28162	9.479494599563	0.523333333338
48	28687	9.534066576347	0.320000000004
48	29998	9.661271316157	0.526666666672
48	31588	9.791746002811	0.526666666672
48	32006	9.82367745502	0.420000000004
48	32767	9.87627131616	0.436666666674
48	33908	9.968196587921	0.426666666672
48	34204	9.993666078235	0.328333333339
48	34626	10.032570409388	0.211666666669
48	35671	10.125344121687	0.41666666667
48	35825	10.133677455022	0.211107045636
48	36300	10.161529921253	0.41666666667
48	36543	10.193666078235	0.325000000005
48	36964	10.247145641353	0.535000000007
48	37098	10.257570409393	0.211666666669
48	37600	10.333812308017	0.215000000003
48	38357	10.469237076062	0.321666666671
48	40993	10.809953721698	0.41666666667
48	41297	10.836440606826	0.113333333336
48	41466	10.843670033535	0.31666666667
48	42101	10.924771391038	0.426666666672
48	43628	11.123287055034	0.526666666672
48	43736	11.143670033535	0.413333333336
48	43978	11.168515858459	0.418333333337
48	45236	11.456438057711	0.551666666677
48	45292	11.475182525127	0.420000000004
48	45522	11.540518019139	0.406666666668
48	45625	11.590478974695	0.320000000004
48	47377	12.230478974703	0.451666666677
48	47750	12.343418848107	0.438333333341
48	47779	12.353851352475	0.406666666668
49	2575	6.316790372358	0.306666666668
49	3033	6.342466934669	0.511666666669
49	4182	6.469930472509	0.205000000001
49	5609	6.627320864316	0.310000000002
49	5661	6.628987530983	0.515085720762
49	6027	6.64746693467	0.613333333336
49	7680	6.827320864316	0.306666666668
49	8722	6.928901810224	0.510000000002
49	8728	6.930568476891	0.6154447712
49	10027	7.071151284937	0.515000000003
49	10196	7.079930472511	0.408333333335
49	11958	7.24732086432	0.513333333336
49	12528	7.293274916958	0.511666666669
49	13324	7.384911805051	0.510000000002
49	13619	7.41842535867	0.210000000002
49	13786	7.450654197654	0.513333333336
49	14012	7.486578471718	0.408333333335
49	14632	7.598274916959	0.511666666669
49	15129	7.681151284939	0.61666666667
49	15503	7.764035582574	0.51666666667
49	16940	8.028425358672	0.413333333336
49	17119	8.064035582574	0.511666666669
49	18199	8.232526151523	0.205000000001
49	18963	8.357889743614	0.205000000001
49	19047	8.366223076949	0.518333333337
49	19255	8.388830977098	0.515000000003
49	20095	8.587164310431	0.408333333335
49	22629	8.91573324301	0.210000000002
49	22831	8.954066576351	0.519873758161
49	24220	9.070177990576	0.415000000003
49	25483	9.18596004932	0.513333333336
49	26189	9.268511323909	0.410000000002
49	26225	9.271746002807	0.515000000003
49	27224	9.387626715987	0.511666666669
49	27951	9.466161266227	0.510000000002
49	29866	9.649604649488	0.515000000003
49	30308	9.676746002808	0.411666666669
49	30892	9.729066576346	0.515000000003
49	31376	9.771161266228	0.408333333335
49	31767	9.813677455018	0.410000000002
49	32321	9.849863254584	0.308333333335
49	33798	9.956271316156	0.51666666667
49	35225	10.073666078231	0.205000000001
49	35310	10.081999411566	0.41666666667
49	35378	10.091438057698	0.406666666668
49	36635	10.222010788353	0.513333333336
49	36664	10.22367745502	0.511531813674
49	36780	10.229237076054	0.306666666668
49	36967	10.247570409391	0.426666666672
49	37056	10.254863254585	0.510000000002
49	38275	10.455903742726	0.410000000002
49	39655	10.63214564135	0.513333333336
49	39791	10.660903742727	0.513333333336
49	41887	10.904771391034	0.406666666668
49	42001	10.906438057701	0.513151002673
49	42042	10.913104724369	0.415000000003
49	42229	10.9353367002	0.408333333335
49	43593	11.109953721698	0.513333333336
49	44234	11.238107273493	0.515000000003
49	44241	11.240336700201	0.510000000002
49	44331	11.260182525124	0.510000000002
49	45243	11.463515858458	0.408333333335
49	45916	11.785478974694	0.515000000003
49	47127	12.193812308029	0.415000000003

