version 2
run General-3-20190529-16:32:52-4608
attr configname General
attr datetime 20190529-16:32:52
attr experiment General
attr inifile omnetpp.ini
attr iterationvars ""
attr iterationvarsf ""
attr measurement ""
attr network networks.Net5
attr processid 4608
attr repetition 3
attr replication #3
attr resultdir results
attr runnumber 3
attr seedset 3
param **.appType "\"App\""
param **.app.packetLength "1500 bytes"
param **.app.totalNodes 3
param **.destAddresses "\"0\""
param **.sendIaTime "uniform(5s, 10s)"
param **.sendIaTimeEvil 10ms

vector 0 Net5.rte[0].app endToEndDelay:vector ETV
attr interpolationmode none
attr title "end-to-end delay of arrived packets, vector"
attr unit s
vector 1 Net5.rte[1].app endToEndDelay:vector ETV
attr interpolationmode none
attr title "end-to-end delay of arrived packets, vector"
attr unit s
vector 2 Net5.rte[2].app endToEndDelay:vector ETV
attr interpolationmode none
attr title "end-to-end delay of arrived packets, vector"
attr unit s
0	7	5.455291068281	0.101666666667
0	19	5.658624401615	0.101666666667
0	48	5.861957734949	0.101666666667
0	62	7.957322855214	0.101666666667
0	82	8.160667299659	0.101666666667
0	92	8.162333966326	0.103333333334
0	132	8.947405777572	0.101666666667
0	146	9.049072444239	0.101666666667
0	181	11.366967297924	0.101666666667
0	195	11.468633964591	0.101666666667
0	232	14.252248354223	0.101666666667
0	246	17.422057644431	0.101666666667
0	266	17.625413199987	0.101666666667
0	276	17.627079866654	0.103333333334
0	356	18.571038712515	0.101666666667
0	376	18.675983156959	0.101666666667
0	408	18.879372045848	0.101722222222
1	13	5.556957734948	0.101666666667
1	33	5.760291068282	0.101666666667
1	43	5.761957734949	0.103333333334
1	56	7.855656188547	0.101666666667
1	68	8.059000632992	0.101677777778
1	97	8.262333966326	0.101666666667
1	105	8.642405777571	0.101666666667
1	117	8.845739110905	0.101666666667
1	147	9.049072444239	0.101666666667
1	160	11.163600631257	0.101666666667
1	180	11.366967297924	0.101666666667
1	190	11.368633964591	0.103333333334
1	203	13.845559465333	0.101666666667
1	215	14.048915020889	0.101688888889
1	233	14.252248354223	0.101666666667
1	267	17.625413199987	0.101666666667
1	281	17.727079866654	0.101666666667
1	315	18.367649823626	0.101666666667
1	355	18.571038712515	0.101666666667
1	359	18.572705379182	0.103333333334
1	392	18.777649823626	0.101666666667
2	34	5.760291068282	0.101666666667
2	49	5.861957734949	0.101666666667
2	83	8.160667299659	0.101666666667
2	98	8.262333966326	0.101666666667
2	111	8.744072444238	0.101666666667
2	131	8.947405777572	0.101666666667
2	141	8.949072444239	0.103333333334
2	154	11.06193396459	0.101666666667
2	166	11.265300631257	0.1017
2	196	11.468633964591	0.101666666667
2	209	13.947226132	0.101666666667
2	221	14.150581687556	0.101666666667
2	240	17.320390977764	0.101666666667
2	252	17.52374653332	0.101688888889
2	282	17.727079866654	0.101666666667
2	299	18.265983156959	0.101666666667
2	331	18.469372045848	0.101722222222

