version 2
run General-22-20190610-18:03:57-16556
attr configname General
attr datetime 20190610-18:03:57
attr experiment General
attr inifile omnetpp.ini
attr iterationvars ""
attr iterationvarsf ""
attr measurement ""
attr network networks.Net5
attr processid 16556
attr repetition 22
attr replication #22
attr resultdir results
attr runnumber 22
attr seedset 22
param **.appType "\"App\""
param **.app.packetLength "1500 bytes"
param **.app.totalNodes 10
param **.destAddresses "\"0\""
param **.sendIaTime "uniform(5s, 10s)"
param **.sendIaTimeEvil 10ms

vector 0 Net5.rte[4].app endToEndDelay:vector ETV
attr interpolationmode none
attr title "end-to-end delay of arrived packets, vector"
attr unit s
vector 1 Net5.rte[8].app endToEndDelay:vector ETV
attr interpolationmode none
attr title "end-to-end delay of arrived packets, vector"
attr unit s
vector 2 Net5.rte[0].app endToEndDelay:vector ETV
attr interpolationmode none
attr title "end-to-end delay of arrived packets, vector"
attr unit s
vector 3 Net5.rte[1].app endToEndDelay:vector ETV
attr interpolationmode none
attr title "end-to-end delay of arrived packets, vector"
attr unit s
vector 4 Net5.rte[2].app endToEndDelay:vector ETV
attr interpolationmode none
attr title "end-to-end delay of arrived packets, vector"
attr unit s
vector 5 Net5.rte[5].app endToEndDelay:vector ETV
attr interpolationmode none
attr title "end-to-end delay of arrived packets, vector"
attr unit s
vector 6 Net5.rte[3].app endToEndDelay:vector ETV
attr interpolationmode none
attr title "end-to-end delay of arrived packets, vector"
attr unit s
vector 7 Net5.rte[9].app endToEndDelay:vector ETV
attr interpolationmode none
attr title "end-to-end delay of arrived packets, vector"
attr unit s
vector 8 Net5.rte[6].app endToEndDelay:vector ETV
attr interpolationmode none
attr title "end-to-end delay of arrived packets, vector"
attr unit s
vector 9 Net5.rte[7].app endToEndDelay:vector ETV
attr interpolationmode none
attr title "end-to-end delay of arrived packets, vector"
attr unit s
0	15	6.059141093133	0.203333333334
0	52	6.465807759801	0.203333333334
0	217	6.875807759803	0.206666666668
0	259	7.509356824149	0.203333333334
0	450	7.916045713039	0.203333333334
0	482	7.916738628908	0.101666666667
0	540	7.923405295576	0.210000000002
0	546	7.924379046374	0.211666666669
0	671	8.289062417678	0.101666666667
0	683	8.492395751012	0.101666666667
0	822	8.69906241768	0.105000000001
0	925	8.916481559564	0.101666666667
0	1045	9.021481559565	0.105000000001
0	1203	9.164199884934	0.206666666668
0	1251	9.262533218267	0.203333333334
0	1401	9.918537564502	0.103333333334
0	1532	10.330204231171	0.210000000002
0	1569	12.411805284642	0.203333333334
0	1589	12.818516395754	0.203377777778
0	1825	13.228516395756	0.206666666668
0	1880	13.263287957977	0.105000000001
0	1903	13.277605004542	0.203333333334
0	1930	13.36162129131	0.101666666667
0	2112	13.684360560098	0.203333333334
0	2149	13.689360560099	0.208333333335
0	2281	13.934788969159	0.106666666668
0	2378	14.136455635826	0.105000000001
0	2435	15.319530235936	0.101666666667
0	2457	15.522896902603	0.1017
0	2619	15.729563569271	0.105000000001
0	2668	15.817057288171	0.105000000001
0	2839	16.225390621506	0.310000000002
0	3049	17.660352834838	0.311666666669
0	3116	17.863686168172	0.210000000002
0	3155	18.219653430129	0.101666666667
0	3208	18.423053430129	0.101666666667
0	3256	18.42805343013	0.106666666668
0	3446	19.325928073822	0.106666666668
0	3684	19.727185300166	0.208333333335
0	3714	19.734261407157	0.210000000002
0	3792	19.928851966833	0.206666666668
0	3952	21.436738411784	0.105000000001
0	3997	21.458771225085	0.105000000001
0	4202	21.741738411785	0.206666666668
0	4258	21.86710455842	0.310000000002
0	4533	22.861204910347	0.105000000001
0	4542	22.864538243681	0.311666666669
0	4567	22.931475887002	0.103333333334
0	4716	23.343142553671	0.210000000002
0	4882	24.545328842059	0.208333333335
0	4914	24.645328842059	0.105000000001
0	5075	25.996377357103	0.105000000001
0	5139	26.196377357103	0.203333333334
0	5237	27.445246173734	0.203333333334
0	5243	27.495728126661	0.203333333334
0	5345	27.622341833064	0.105000000001
0	5536	27.829008499732	0.210000000002
0	5552	27.902550348883	0.203333333334
0	5608	27.907550348884	0.208333333335
0	5613	27.908012691369	0.106666666668
0	5887	28.525883682221	0.310000000002
0	6015	28.737353269577	0.101666666667
0	6053	28.744019936245	0.210000000002
0	6279	29.706946496759	0.311666666669
0	6353	29.910279830093	0.210000000002
0	6520	31.33955269695	0.105000000001
0	6543	31.344552696951	0.211666666669
0	6754	33.537126633214	0.211666666669
0	6861	33.735459966547	0.105000000001
0	6974	33.939550196321	0.211666666669
0	7093	34.239550196321	0.206666666668
0	7141	34.503228647801	0.203333333334
0	7379	34.820877436669	0.206666666668
0	7407	34.910073092247	0.203333333334
0	7444	34.915073092248	0.208333333335
0	7461	34.919210770002	0.203333333334
0	7674	35.812661276023	0.206666666668
0	7785	36.120994609358	0.210000000002
0	7937	37.046165207936	0.211666666669
0	8067	37.44949854127	0.310000000002
0	8234	39.18791698881	0.211666666669
0	8338	39.382916988809	0.101666666667
0	8451	39.50478365548	0.206666666668
0	8504	39.606450322147	0.105000000001
0	8710	40.66789618203	0.106666666668
0	9009	41.328011579388	0.311666666669
0	9047	41.426344912721	0.206666666668
1	29	6.245636018425	0.203333333334
1	35	6.262474426467	0.203333333334
1	124	6.669141093135	0.203333333334
1	154	6.672474426469	0.206666666668
1	264	7.51007196224	0.101666666667
1	304	7.713405295574	0.101666666667
1	513	7.920071962242	0.105000000001
1	630	8.031045713042	0.318333333337
1	646	8.12104571304	0.205000000001
1	813	8.697395751013	0.205000000001
1	865	8.800729084347	0.206666666668
1	965	8.919814892898	0.105000000001
1	1146	9.121481559565	0.205000000001
1	1201	9.164199884934	0.105000000001
1	1210	9.165866551601	0.208333333335
1	1409	9.920204231169	0.105000000001
1	1555	10.436870897839	0.31666666667
1	1579	12.615138617976	0.203333333334
1	1679	13.021849729088	0.203333333334
1	1709	13.025183062422	0.206666666668
1	1950	13.364954624644	0.105000000001
1	1961	13.366621291311	0.208333333335
1	2157	13.691027226766	0.210000000002
1	2246	13.889360560099	0.205000000001
1	2327	14.033122302492	0.205000000001
1	2408	14.238122302493	0.206666666668
1	2610	15.727896902604	0.205000000001
1	2689	15.829563569271	0.205000000001
1	2740	15.920390621505	0.208333333335
1	2826	16.130390621507	0.215000000003
1	3008	17.565352834839	0.21666666667
1	3139	17.97035283484	0.31666666667
1	3298	18.52805343013	0.206666666668
1	3329	18.62805343013	0.205000000001
1	3370	19.112140855719	0.203333333334
1	3472	19.424261407155	0.205000000001
1	3494	19.518851966831	0.203377777778
1	3777	19.840928073825	0.31666666667
1	3798	19.9305186335	0.208333333335
1	3848	21.128316189561	0.203333333334
1	4010	21.535071745117	0.203333333334
1	4041	21.538405078451	0.206666666668
1	4096	21.562104558419	0.208333333335
1	4239	21.772104558421	0.215000000003
1	4463	22.769538243682	0.21666666667
1	4575	22.933142553669	0.105000000001
1	4599	22.962871577014	0.206666666668
1	4739	23.449809220339	0.31666666667
1	4890	24.546995508726	0.210000000002
1	4944	24.745328842059	0.205000000001
1	5121	26.09804402377	0.105000000001
1	5129	26.099710690437	0.208333333335
1	5201	27.292394793327	0.203333333334
1	5363	27.699217015549	0.203488888888
1	5420	27.724008499731	0.206666666668
1	5650	27.9356751664	0.31666666667
1	5672	28.006346024702	0.205000000001
1	5731	28.107550348884	0.205000000001
1	5830	28.330631047354	0.101666666667
1	5864	28.430883682222	0.215000000003
1	5896	28.534019936243	0.101722222222
1	6035	28.740686602911	0.105000000001
1	6237	29.61194649676	0.21666666667
1	6335	29.876426564429	0.305000000001
1	6376	30.016946496761	0.31666666667
1	6566	31.441219363617	0.206666666668
1	6581	31.451219363619	0.318333333337
1	6811	33.643793299882	0.318333333337
1	6906	33.835459966547	0.205000000001
1	7036	34.046216862989	0.318333333337
1	7099	34.241216862988	0.208333333335
1	7107	34.299895314467	0.203333333334
1	7204	34.706739758913	0.203511111112
1	7377	34.820877436669	0.105000000001
1	7386	34.822544103336	0.208333333335
1	7543	35.115073092248	0.205000000001
1	7586	35.428383461831	0.203333333334
1	7680	35.81432794269	0.208333333335
1	7818	36.227661276026	0.31666666667
1	7989	37.152831874604	0.318333333337
1	8054	37.354498541271	0.215000000003
1	8127	38.890106196482	0.203333333334
1	8291	39.294583655478	0.318333333337
1	8297	39.298116988812	0.204677458996
1	8353	39.386250322143	0.105000000001
1	8527	39.708116988814	0.206666666668
1	8741	40.76789618203	0.206666666668
1	8950	41.233011579389	0.21666666667
1	9053	41.428011579388	0.208333333335
2	49	6.448969351759	0.203333333334
2	175	6.770807759802	0.305000000001
2	210	6.872474426469	0.203333333334
2	479	7.916738628908	0.203333333334
2	583	8.019379046373	0.306666666668
2	639	8.120071962242	0.305000000001
2	668	8.22104571304	0.305000000001
2	858	8.797395751013	0.203333333334
2	871	8.804062417681	0.311666666669
2	1138	9.119814892898	0.305000000001
2	1179	9.1608665516	0.101666666667
2	1193	9.162533218267	0.205000000001
2	1278	9.323148226232	0.406666666668
2	1446	10.120204231169	0.305000000001
2	1546	10.42520423117	0.305000000001
2	1742	13.123516395755	0.305000000001
2	1818	13.225183062422	0.203333333334
2	2054	13.564954624644	0.406666666668
2	2057	13.566621291311	0.306666666668
2	2113	13.684360560098	0.203333333334
2	2296	13.989360560099	0.305000000001
2	2401	14.234788969159	0.203333333334
2	2414	14.241455635827	0.413333333336
2	2451	15.508723954836	0.203333333334
2	2681	15.827896902604	0.305000000001
2	2709	15.915390621504	0.203333333334
2	2734	15.917057288171	0.205000000001
2	2799	16.031230235938	0.406666666668
2	2863	16.738686168167	0.305000000001
2	2899	17.348686168169	0.305000000001
2	3130	17.958686168171	0.305000000001
2	3274	18.524720096796	0.203333333334
2	3345	18.72805343013	0.305000000001
2	3613	19.627594740489	0.408333333335
2	3649	19.722185300165	0.203333333334
2	3759	19.829261407156	0.305000000001
2	3785	19.925518633499	0.203333333334
2	3854	21.150393447306	0.203333333334
2	4065	21.557104558418	0.203333333334
2	4090	21.558771225085	0.205000000001
2	4192	21.738405078451	0.406666666668
2	4196	21.740071745118	0.205000000001
2	4290	22.146093799234	0.203333333334
2	4330	22.552871577012	0.203444444444
2	4589	22.95953824368	0.203333333334
2	4630	23.133142553669	0.305000000001
2	4730	23.43814255367	0.305000000001
2	4847	24.540328842058	0.203333333334
2	4975	24.946995508726	0.406666666668
2	5098	26.094710690436	0.101666666667
2	5114	26.096377357103	0.205000000001
2	5224	27.394501580257	0.406666666668
2	5404	27.720675166397	0.203333333334
2	5553	27.902550348883	0.203333333334
2	5641	27.924008499731	0.305000000001
2	5760	28.207550348884	0.305000000001
2	5763	28.215883682219	0.414537657518
2	5785	28.217550348886	0.416204324185
2	6012	28.737353269577	0.203333333334
2	6059	28.785213163422	0.305000000001
2	6093	28.940686602911	0.305000000001
2	6128	29.39527983009	0.305066666667
2	6367	30.005279830092	0.305000000001
2	6559	31.437886030283	0.203333333334
2	6577	31.444552696951	0.311666666669
2	6795	33.632126633213	0.306666666668
2	7017	34.03455019632	0.306666666668
2	7025	34.037126633214	0.406666666668
2	7086	34.236216862987	0.203333333334
2	7355	34.817544103335	0.101666666667
2	7369	34.819210770002	0.205000000001
2	7408	34.910073092247	0.203333333334
2	7563	35.215073092248	0.305000000001
2	7671	35.810994609356	0.205000000001
2	7803	36.215994609357	0.305000000001
2	7832	36.529298541268	0.305000000001
2	7951	37.139498541268	0.305000000001
2	7973	37.141165207935	0.306666666668
2	8277	39.282916988809	0.306666666668
2	8446	39.503116988813	0.205000000001
2	8471	39.586250322143	0.305000000001
2	8520	39.70478365548	0.203333333334
2	8667	40.609522690497	0.203333333334
2	8732	40.764562848696	0.203333333334
2	8793	41.016344912719	0.203488888888
2	9037	41.423011579387	0.203333333334
3	91	6.567474426468	0.101666666667
3	211	6.872474426469	0.203333333334
3	481	7.916738628908	0.101666666667
3	499	7.918405295575	0.205000000001
3	569	8.017712379706	0.101666666667
3	598	8.02104571304	0.308333333335
3	725	8.594062417679	0.101666666667
3	844	8.71314822623	0.101666666667
3	859	8.797395751013	0.203333333334
3	923	8.916481559564	0.101666666667
3	954	8.918148226231	0.103333333334
3	1178	9.1608665516	0.203333333334
3	1285	9.364199884934	0.305000000001
3	1393	9.916870897835	0.101666666667
3	1549	10.426870897837	0.306666666668
3	1636	12.920183062421	0.101666666667
3	1667	12.954921291309	0.101666666667
3	1775	13.158287957976	0.1017
3	1819	13.225183062422	0.203333333334
3	1929	13.36162129131	0.101666666667
3	1980	13.421433413601	0.203333333334
3	2137	13.686027226765	0.205000000001
3	2172	13.786027226765	0.101666666667
3	2206	13.828122302491	0.203355555556
3	2402	14.234788969159	0.203333333334
3	2445	15.421196902603	0.101666666667
3	2498	15.62456356927	0.101666666667
3	2528	15.626230235937	0.103333333334
3	2710	15.915390621504	0.203333333334
3	2848	16.322057288172	0.406666666668
3	3070	17.757019501504	0.408333333335
3	3133	17.960352834838	0.306666666668
3	3276	18.524720096796	0.101666666667
3	3287	18.526386763463	0.205000000001
3	3316	18.609194740486	0.305000000001
3	3384	19.219261407154	0.305066666667
3	3672	19.723851966832	0.205000000001
3	3770	19.830928073823	0.306666666668
3	3786	19.925518633499	0.203333333334
3	3828	20.924982856227	0.203333333334
3	3868	21.331738411783	0.203422222222
3	4066	21.557104558418	0.203333333334
3	4193	21.738405078451	0.203333333334
3	4275	21.963771225086	0.406666666668
3	4559	22.929809220335	0.101666666667
3	4590	22.95953824368	0.203333333334
3	4596	22.961204910347	0.408333333335
3	4733	23.439809220337	0.306666666668
3	4763	24.133528842058	0.203333333334
3	4846	24.540328842058	0.203333333334
3	4870	24.541995508725	0.205000000001
3	5097	26.094710690436	0.203333333334
3	5152	26.29804402377	0.305000000001
3	5171	26.987834913589	0.406666666668
3	5405	27.720675166397	0.203333333334
3	5456	27.801346024701	0.406844444444
3	5583	27.90421701555	0.205000000001
3	5644	27.925675166398	0.306666666668
3	5661	28.00421701555	0.101666666667
3	5933	28.622550348887	0.406666666668
3	6014	28.737353269577	0.101666666667
3	6026	28.739019936244	0.205000000001
3	6304	29.803613163425	0.408333333335
3	6370	30.006946496759	0.306666666668
3	6560	31.437886030283	0.203333333334
3	6572	31.442886030284	0.310000000002
3	6625	33.020193299877	0.305000000001
3	6772	33.630459966546	0.305000000001
3	6800	33.63379329988	0.308333333335
3	7022	34.036216862987	0.308333333335
3	7087	34.236216862987	0.203333333334
3	7354	34.817544103335	0.203333333334
3	7432	34.911739758914	0.205000000001
3	7491	35.011739758914	0.101666666667
3	7525	35.020877436669	0.305000000001
3	7566	35.225050128497	0.203333333334
3	7667	35.809327942689	0.203333333334
3	7806	36.217661276024	0.306666666668
3	7977	37.142831874602	0.308333333335
3	8076	37.546165207936	0.406666666668
3	8282	39.284583655476	0.308333333335
3	8337	39.382916988809	0.101666666667
3	8421	39.501450322146	0.203333333334
3	8521	39.70478365548	0.203333333334
3	8591	40.357696182028	0.203333333334
3	8731	40.764562848696	0.203333333334
3	8735	40.766229515363	0.205000000001
3	9025	41.381029515362	0.305000000001
3	9038	41.423011579387	0.203333333334
3	9041	41.424678246054	0.408333333335
4	98	6.569141093135	0.103333333334
4	185	6.772474426469	0.103333333334
4	274	7.611738628907	0.101666666667
4	352	7.815071962241	0.101666666667
4	398	7.818405295575	0.105000000001
4	570	8.017712379706	0.101666666667
4	605	8.022712379707	0.310000000002
4	726	8.594062417679	0.101666666667
4	783	8.611481559563	0.101666666667
4	862	8.79906241768	0.205000000001
4	874	8.814814892897	0.101666666667
4	1022	9.018148226231	0.101666666667
4	1100	9.0608665516	0.103333333334
4	1225	9.205170897833	0.305000000001
4	1255	9.264199884934	0.205000000001
4	1346	9.815204231168	0.305033333334
4	1552	10.428537564504	0.308333333335
4	1643	12.921849729088	0.103333333334
4	1726	13.056587957976	0.101666666667
4	1752	13.125183062422	0.103333333334
4	1841	13.259954624643	0.101666666667
4	1870	13.26162129131	0.103333333334
4	2083	13.586027226765	0.105000000001
4	2173	13.786027226765	0.101666666667
4	2261	13.929788969158	0.101666666667
4	2405	14.236455635826	0.205000000001
4	2500	15.62456356927	0.101666666667
4	2596	15.726230235937	0.101666666667
4	2735	15.917057288171	0.205000000001
4	2836	16.222057288172	0.306666666668
4	3044	17.657019501504	0.308333333335
4	3136	17.962019501505	0.308333333335
4	3277	18.524720096796	0.101666666667
4	3307	18.529720096797	0.208333333335
4	3426	19.320928073821	0.101666666667
4	3587	19.623851966832	0.105000000001
4	3739	19.825518633499	0.103333333334
4	3774	19.83259474049	0.308333333335
4	3944	21.435071745117	0.103333333334
4	4091	21.558771225085	0.205000000001
4	4124	21.638405078451	0.103333333334
4	4255	21.863771225086	0.306666666668
4	4296	22.218109220333	0.305000000001
4	4470	22.828142553668	0.305033333334
4	4534	22.861204910347	0.308333333335
4	4595	22.961204910347	0.205000000001
4	4736	23.441475887004	0.308333333335
4	4823	24.441995508725	0.105000000001
4	4900	24.641995508725	0.101666666667
4	5115	26.096377357103	0.205000000001
4	5143	26.19804402377	0.205000000001
4	5413	27.722341833064	0.205000000001
4	5492	27.80421701555	0.105000000001
4	5577	27.903012691368	0.101666666667
4	5647	27.927341833065	0.308333333335
4	5662	28.00421701555	0.101666666667
4	5867	28.432297714021	0.101666666667
4	5884	28.522550348887	0.306666666668
4	5938	28.63568660291	0.101666666667
4	5976	28.639019936244	0.105000000001
4	6274	29.703613163425	0.308333333335
4	6373	30.008613163426	0.308333333335
4	6563	31.43955269695	0.205000000001
4	6578	31.444552696951	0.311666666669
4	6805	33.635459966547	0.310000000002
4	6845	33.732126633213	0.101666666667
4	7030	34.037883529654	0.310000000002
4	7057	34.136216862987	0.103333333334
4	7272	34.717544103335	0.103333333334
4	7325	34.811739758914	0.105000000001
4	7465	34.920877436669	0.205000000001
4	7492	35.011739758914	0.101666666667
4	7637	35.709327942689	0.103333333334
4	7809	36.219327942691	0.308333333335
4	7981	37.144498541269	0.310000000002
4	8064	37.446165207936	0.306666666668
4	8105	38.671050322142	0.305000000001
4	8252	39.281250322142	0.305000000001
4	8287	39.286250322143	0.310000000002
4	8373	39.401450322146	0.103333333334
4	8524	39.706450322147	0.205000000001
4	8740	40.76789618203	0.206666666668
4	8982	41.323011579387	0.103333333334
4	8993	41.324678246054	0.308333333335
5	106	6.570807759802	0.105000000001
5	216	6.875807759803	0.206666666668
5	435	7.824379046374	0.111666666669
5	515	7.920071962242	0.206666666668
5	596	8.02104571304	0.105000000001
5	619	8.026045713041	0.2109737508
5	677	8.390729084345	0.101666666667
5	724	8.594062417679	0.101666666667
5	769	8.59906241768	0.106666666668
5	1036	9.019814892898	0.205000000001
5	1158	9.124814892899	0.208333333335
5	1192	9.162533218267	0.103333333334
5	1214	9.167533218268	0.210000000002
5	1432	10.021870897836	0.206666666668
5	1502	10.230204231171	0.110000000002
5	1651	12.923516395755	0.105000000001
5	1824	13.228516395756	0.206666666668
5	1964	13.366621291311	0.208333333335
5	1998	13.464954624644	0.205000000001
5	2104	13.624766746935	0.203333333334
5	2142	13.687693893432	0.206666666668
5	2187	13.789360560099	0.105000000001
5	2299	14.031455635825	0.203333333334
5	2341	14.038122302493	0.210000000002
5	2429	15.305390621502	0.203333333334
5	2539	15.627896902604	0.105000000001
5	2557	15.71205728817	0.203333333334
5	2696	15.832896902605	0.208333333335
5	2815	16.125390621506	0.210000000002
5	2997	17.560352834838	0.211666666669
5	3086	17.763686168172	0.110000000002
5	3149	18.117986763462	0.101666666667
5	3165	18.321386763462	0.101733333333
5	3296	18.52805343013	0.105000000001
5	3483	19.429261407156	0.210000000002
5	3631	19.634261407157	0.110000000002
5	3677	19.725518633499	0.206666666668
5	3791	19.928851966833	0.206666666668
5	3834	20.947060113972	0.203333333334
5	3901	21.353771225084	0.203377777778
5	4049	21.540071745118	0.208333333335
5	4201	21.741738411785	0.206666666668
5	4228	21.76710455842	0.210000000002
5	4310	22.349427132568	0.203333333334
5	4410	22.756204910346	0.203333333334
5	4452	22.764538243681	0.211666666669
5	4616	23.034809220336	0.206666666668
5	4686	23.243142553671	0.110000000002
5	4875	24.543662175392	0.206666666668
5	4951	24.748662175393	0.208333333335
5	4982	25.688032912657	0.101666666667
5	4994	25.891377357102	0.101677777778
5	5113	26.096377357103	0.103333333334
5	5211	27.313975166396	0.101666666667
5	5253	27.517341833063	0.1017
5	5435	27.729008499732	0.110000000002
5	5594	27.905883682217	0.206666666668
5	5679	28.007550348884	0.105000000001
5	5713	28.017550348886	0.216204324185
5	5853	28.425883682221	0.210000000002
5	6037	28.740686602911	0.206666666668
5	6072	28.840686602911	0.205000000001
5	6226	29.606946496759	0.211666666669
5	6320	29.810279830093	0.110000000002
5	6392	31.031130474726	0.101666666667
5	6431	31.234552696949	0.101666666667
5	6481	31.244552696951	0.111666666669
5	6716	33.437126633214	0.111666666669
5	6921	33.838793299881	0.208333333335
5	6925	33.839550196321	0.111666666669
5	7092	34.239550196321	0.206666666668
5	7368	34.819210770002	0.103333333334
5	7390	34.824210770003	0.210000000002
5	7437	34.913406425581	0.206666666668
5	7506	35.015073092248	0.105000000001
5	7679	35.81432794269	0.208333333335
5	7754	36.020994609358	0.110000000002
5	7903	36.946165207936	0.111666666669
5	8043	37.34949854127	0.210000000002
5	8194	39.08791698881	0.111666666669
5	8208	39.093439529816	0.203333333334
5	8407	39.486250322143	0.205000000001
5	8420	39.501450322146	0.203333333334
5	8458	39.506450322147	0.208333333335
5	8561	40.154362848694	0.203333333334
5	8630	40.561229515362	0.203533333334
5	8938	41.228011579388	0.211666666669
5	9046	41.426344912721	0.206666666668
6	149	6.670807759802	0.205000000001
6	184	6.772474426469	0.103333333334
6	386	7.816738628908	0.103333333334
6	532	7.922712379707	0.210000000002
6	587	8.020071962242	0.205000000001
6	645	8.12104571304	0.205000000001
6	811	8.697395751013	0.103333333334
6	840	8.704062417681	0.211666666669
6	907	8.855866551599	0.101666666667
6	1035	9.019814892898	0.205000000001
6	1070	9.059199884933	0.101666666667
6	1108	9.062533218267	0.105000000001
6	1235	9.223148226232	0.306666666668
6	1429	10.020204231169	0.205000000001
6	1529	10.328537564504	0.208333333335
6	1704	13.023516395755	0.205000000001
6	1751	13.125183062422	0.103333333334
6	1997	13.464954624644	0.205000000001
6	1999	13.464954624644	0.306666666668
6	2077	13.584360560098	0.103333333334
6	2245	13.889360560099	0.205000000001
6	2370	14.134788969159	0.103333333334
6	2392	14.141455635827	0.313333333336
6	2609	15.727896902604	0.205000000001
6	2667	15.817057288171	0.105000000001
6	2756	15.931230235938	0.306666666668
6	2773	16.020390621505	0.105000000001
6	2950	17.455352834837	0.106666666668
6	3014	17.568889327514	0.203333333334
6	3113	17.862019501505	0.208333333335
6	3239	18.424720096796	0.103333333334
6	3328	18.62805343013	0.205000000001
6	3554	19.527594740489	0.308333333335
6	3581	19.622185300165	0.103333333334
6	3711	19.73259474049	0.208333333335
6	3738	19.825518633499	0.103333333334
6	3996	21.458771225085	0.105000000001
6	4123	21.638405078451	0.103333333334
6	4125	21.638405078451	0.306666666668
6	4163	21.662104558419	0.105000000001
6	4379	22.65953824368	0.106666666668
6	4521	22.85953824368	0.103333333334
6	4613	23.033142553669	0.205000000001
6	4713	23.341475887004	0.208333333335
6	4817	24.440328842058	0.103333333334
6	4966	24.846995508726	0.306666666668
6	4988	25.789699579324	0.101666666667
6	5033	25.993044023769	0.101666666667
6	5074	25.996377357103	0.105000000001
6	5336	27.620675166397	0.103333333334
6	5484	27.802550348883	0.103333333334
6	5533	27.827341833065	0.208333333335
6	5730	28.107550348884	0.205000000001
6	5751	28.117550348886	0.316204324185
6	5808	28.32088368222	0.105000000001
6	5968	28.637353269577	0.103333333334
6	6071	28.840686602911	0.205000000001
6	6177	29.501946496758	0.106666666668
6	6350	29.908613163426	0.208333333335
6	6512	31.337886030283	0.103333333334
6	6542	31.344552696951	0.211666666669
6	6751	33.535459966547	0.210000000002
6	6967	33.937126633214	0.306666666668
6	6971	33.938793299881	0.210909770229
6	7056	34.136216862987	0.103333333334
6	7147	34.51171481443	0.203333333334
6	7152	34.512521881112	0.101666666667
6	7242	34.715877436668	0.101666666667
6	7280	34.719210770002	0.105000000001
6	7319	34.810073092247	0.103333333334
6	7542	35.115073092248	0.205000000001
6	7643	35.710994609356	0.105000000001
6	7782	36.119327942691	0.208333333335
6	7934	37.044498541269	0.210000000002
6	8004	37.244498541269	0.105000000001
6	8231	39.186250322143	0.210000000002
6	8379	39.403116988813	0.105000000001
6	8406	39.486250322143	0.205000000001
6	8496	39.60478365548	0.103333333334
6	8696	40.664562848696	0.103333333334
6	8855	41.123011579387	0.106666666668
6	8981	41.323011579387	0.103333333334
7	161	6.674141093136	0.208333333335
7	223	6.87747442647	0.208333333335
7	483	7.916738628908	0.101666666667
7	541	7.923405295576	0.210000000002
7	633	8.032712379709	0.320000000004
7	649	8.122712379707	0.206666666668
7	823	8.69906241768	0.206666666668
7	850	8.754199884932	0.101666666667
7	868	8.802395751014	0.208333333335
7	926	8.916481559564	0.101666666667
7	979	8.957533218266	0.101666666667
7	1152	9.123148226232	0.206666666668
7	1182	9.1608665516	0.101666666667
7	1316	9.600909989161	0.305000000001
7	1379	9.84354492523	0.305000000001
7	1394	9.916870897835	0.101666666667
7	1558	10.438537564506	0.318333333337
7	1716	13.026849729089	0.208333333335
7	1732	13.074271671208	0.203333333334
7	1831	13.230183062423	0.208333333335
7	1931	13.36162129131	0.101666666667
7	1963	13.366621291311	0.208333333335
7	2017	13.481027226764	0.203422222222
7	2249	13.891027226766	0.206666666668
7	2335	14.034788969159	0.206666666668
7	2411	14.23978896916	0.208333333335
7	2621	15.729563569271	0.206666666668
7	2693	15.831230235938	0.206666666668
7	2744	15.922057288172	0.210000000002
7	2829	16.132057288174	0.21666666667
7	3011	17.567019501506	0.218333333337
7	3142	17.972019501507	0.318333333337
7	3308	18.529720096797	0.208333333335
7	3332	18.629720096797	0.206666666668
7	3417	19.315474189053	0.203333333334
7	3479	19.425928073822	0.206666666668
7	3648	19.722185300165	0.203333333334
7	3696	19.728851966833	0.210000000002
7	3780	19.842594740492	0.318333333337
7	4048	21.540071745118	0.208333333335
7	4100	21.563771225086	0.210000000002
7	4208	21.743405078452	0.208333333335
7	4242	21.773771225088	0.21666666667
7	4466	22.771204910349	0.218333333337
7	4560	22.929809220335	0.101666666667
7	4602	22.964538243681	0.208333333335
7	4742	23.451475887006	0.318333333337
7	4753	23.930195508724	0.203333333334
7	4773	24.336995508724	0.203466666666
7	4948	24.746995508726	0.206666666668
7	5101	26.094710690436	0.101666666667
7	5133	26.101377357104	0.210000000002
7	5360	27.648579507068	0.203333333334
7	5427	27.725675166398	0.208333333335
7	5620	27.909217015551	0.210000000002
7	5653	27.937341833067	0.318333333337
7	5683	28.008012691369	0.206666666668
7	5734	28.109217015551	0.206666666668
7	5872	28.432550348889	0.21666666667
7	6016	28.737353269577	0.101666666667
7	6054	28.744019936245	0.210000000002
7	6240	29.613613163427	0.218333333337
7	6379	30.018613163428	0.318333333337
7	6571	31.442886030284	0.208333333335
7	6584	31.452886030286	0.320000000004
7	6686	33.422750196319	0.305000000001
7	6814	33.645459966549	0.320000000004
7	6914	33.837126633214	0.206666666668
7	6994	34.032883529653	0.305000000001
7	7039	34.047883529656	0.320000000004
7	7134	34.410855214445	0.101666666667
7	7166	34.614210770001	0.101688888889
7	7358	34.817544103335	0.101666666667
7	7452	34.916739758915	0.210000000002
7	7480	34.995827942688	0.305000000001
7	7546	35.116739758915	0.206666666668
7	7593	35.605994609355	0.305166666666
7	7821	36.229327942693	0.318333333337
7	7993	37.154498541271	0.320000000004
7	8057	37.356165207938	0.21666666667
7	8294	39.296250322145	0.320000000004
7	8339	39.382916988809	0.101666666667
7	8459	39.506450322147	0.208333333335
7	8530	39.709783655481	0.208333333335
7	8744	40.769562848697	0.208333333335
7	8755	40.812856023831	0.203333333334
7	8895	41.219678246053	0.203333333334
7	8953	41.234678246056	0.218333333337
8	162	6.674141093136	0.208333333335
8	231	6.979141093137	0.310000000002
8	552	7.927712379708	0.215000000003
8	608	8.023405295576	0.310000000002
8	652	8.124379046374	0.208333333335
8	658	8.129379046375	0.314307084134
8	801	8.695729084346	0.101666666667
8	834	8.702395751014	0.210000000002
8	1153	9.123148226232	0.308333333335
8	1238	9.228148226233	0.311666666669
8	1258	9.265866551601	0.206666666668
8	1264	9.270866551602	0.313333333336
8	1382	9.905909989162	0.305000000001
8	1470	10.12520423117	0.310000000002
8	1535	10.333537564505	0.213333333336
8	1717	13.026849729089	0.208333333335
8	1913	13.33184972909	0.310000000002
8	2011	13.469954624645	0.311666666669
8	2060	13.568287957978	0.308333333335
8	2195	13.791027226766	0.310000000002
8	2252	13.892693893433	0.208333333335
8	2362	14.133122302492	0.101666666667
8	2393	14.141455635827	0.313333333336
8	2628	15.731230235938	0.208333333335
8	2651	15.813723954837	0.101666666667
8	2759	15.936230235939	0.311666666669
8	2842	16.22872395484	0.313333333336
8	2877	17.043686168168	0.305000000001
8	2932	17.36555599418	0.203333333334
8	3017	17.65368616817	0.305000000001
8	3054	17.663686168172	0.315000000003
8	3210	18.423053430129	0.101666666667
8	3335	18.631386763464	0.208333333335
8	3560	19.53259474049	0.313333333336
8	3717	19.737594740491	0.213333333336
8	3756	19.828851966833	0.310000000002
8	3806	20.032185300167	0.310000000002
8	3980	21.455437891751	0.101666666667
8	4148	21.643405078452	0.311666666669
8	4245	21.845071745119	0.310000000002
8	4261	21.870437891754	0.313333333336
8	4324	22.523109220334	0.305000000001
8	4511	22.857871577013	0.101666666667
8	4545	22.867871577015	0.315000000003
8	4629	23.133142553669	0.305000000001
8	4654	23.13814255367	0.310000000002
8	4922	24.646995508726	0.310000000002
8	4969	24.851995508727	0.311666666669
8	5035	25.993044023769	0.101666666667
8	5146	26.199710690437	0.206666666668
8	5307	27.61900849973	0.101666666667
8	5539	27.832341833066	0.213333333336
8	5690	28.009217015551	0.310000000002
8	5737	28.110883682218	0.208333333335
8	5754	28.12088368222	0.319537657519
8	5890	28.529217015555	0.313333333336
8	6082	28.844019936245	0.310000000002
8	6096	28.944019936245	0.308333333335
8	6106	29.090213163423	0.305000000001
8	6204	29.571426564428	0.305000000001
8	6247	29.700279830091	0.305000000001
8	6284	29.710279830093	0.315000000003
8	6386	30.929463808059	0.101666666667
8	6398	31.132886030282	0.101755555556
8	6504	31.336219363616	0.101666666667
8	6599	32.715193299876	0.305000000001
8	6653	33.325459966545	0.305266666668
8	6977	33.942126633215	0.311666666669
8	6982	33.943793299882	0.21590977023
8	7121	34.342883529655	0.310000000002
8	7468	34.922544103336	0.206666666668
8	7474	34.927544103337	0.313333333336
8	7514	35.016739758915	0.310000000002
8	7549	35.118406425582	0.208333333335
8	7572	35.300827942689	0.305000000001
8	7691	35.910994609356	0.305000000001
8	7716	35.917661276024	0.311666666669
8	7940	37.04949854127	0.215000000003
8	8070	37.452831874604	0.313333333336
8	8091	38.366050322141	0.305000000001
8	8133	38.976250322141	0.305199999999
8	8474	39.589583655477	0.308333333335
8	8488	39.603116988813	0.101666666667
8	8512	39.609783655481	0.311666666669
8	8687	40.662896182029	0.101666666667
8	8832	41.076029515361	0.305000000001
8	9014	41.331344912722	0.315000000003
8	9075	41.529678246055	0.310000000002
8	9101	41.686329515363	0.305300000001
9	167	6.675807759803	0.210000000002
9	234	6.980807759804	0.311666666669
9	245	7.306023490815	0.203333333334
9	281	7.712712379705	0.203355555556
9	615	8.025071962243	0.311666666669
9	655	8.126045713041	0.210000000002
9	661	8.131045713042	0.315973750801
9	802	8.695729084346	0.101666666667
9	841	8.704062417681	0.211666666669
9	1159	9.124814892899	0.310000000002
9	1241	9.2298148929	0.313333333336
9	1261	9.267533218268	0.208333333335
9	1267	9.272533218269	0.315000000003
9	1304	9.510170897834	0.305000000001
9	1310	9.538544925229	0.305000000001
9	1445	10.120204231169	0.305000000001
9	1474	10.126870897837	0.311666666669
9	1722	13.028516395756	0.210000000002
9	1916	13.333516395757	0.311666666669
9	2014	13.471621291312	0.313333333336
9	2063	13.569954624645	0.310000000002
9	2202	13.792693893433	0.311666666669
9	2255	13.8943605601	0.210000000002
9	2363	14.133122302492	0.101666666667
9	2396	14.143122302494	0.315000000003
9	2635	15.732896902605	0.210000000002
9	2652	15.813723954837	0.101666666667
9	2762	15.937896902606	0.313333333336
9	2845	16.230390621507	0.315000000003
9	3058	17.665352834839	0.31666666667
9	3119	17.867019501506	0.213333333336
9	3211	18.423053430129	0.101666666667
9	3338	18.633053430131	0.210000000002
9	3356	18.914194740487	0.305000000001
9	3523	19.524261407155	0.305000000001
9	3564	19.534261407157	0.315000000003
9	3767	19.8305186335	0.311666666669
9	3809	20.033851966834	0.311666666669
9	3981	21.455437891751	0.101666666667
9	4152	21.645071745119	0.313333333336
9	4248	21.846738411786	0.311666666669
9	4264	21.872104558421	0.315000000003
9	4512	22.857871577013	0.101666666667
9	4548	22.869538243682	0.31666666667
9	4658	23.139809220337	0.311666666669
9	4719	23.346475887005	0.213333333336
9	4929	24.648662175393	0.311666666669
9	4972	24.853662175394	0.313333333336
9	5036	25.993044023769	0.101666666667
9	5149	26.201377357104	0.208333333335
9	5231	27.415641833063	0.101666666667
9	5304	27.61900849973	0.101666666667
9	5335	27.620675166397	0.103333333334
9	5697	28.010883682218	0.311666666669
9	5740	28.112550348885	0.210000000002
9	5757	28.122550348887	0.321204324186
9	5893	28.530883682222	0.315000000003
9	6086	28.845686602912	0.311666666669
9	6099	28.945686602912	0.310000000002
9	6288	29.71194649676	0.31666666667
9	6356	29.913613163427	0.213333333336
9	6505	31.336219363616	0.101666666667
9	6546	31.347886030285	0.215000000003
9	6631	33.117750196318	0.305000000001
9	6757	33.540459966548	0.215000000003
9	6817	33.727883529652	0.305133333333
9	6983	33.943793299882	0.313333333336
9	7124	34.344550196322	0.311666666669
9	7235	34.715048147764	0.203333333334
9	7471	34.924210770003	0.208333333335
9	7477	34.929210770004	0.315000000003
9	7521	35.018406425582	0.311666666669
9	7552	35.120073092249	0.210000000002
9	7723	35.919327942691	0.313333333336
9	7792	36.124327942692	0.213333333336
9	7812	36.224298541267	0.305000000001
9	7846	36.834498541267	0.305199999999
9	8073	37.454498541271	0.315000000003
9	8237	39.191250322144	0.215000000003
9	8477	39.591250322144	0.310000000002
9	8489	39.603116988813	0.101666666667
9	8515	39.611450322148	0.313333333336
9	8688	40.662896182029	0.101666666667
9	9017	41.333011579389	0.31666666667
9	9079	41.531344912722	0.311666666669

