version 2
run General-5-20190529-16:32:53-8584
attr configname General
attr datetime 20190529-16:32:53
attr experiment General
attr inifile omnetpp.ini
attr iterationvars ""
attr iterationvarsf ""
attr measurement ""
attr network networks.Net5
attr processid 8584
attr repetition 5
attr replication #5
attr resultdir results
attr runnumber 5
attr seedset 5
param **.appType "\"App\""
param **.app.packetLength "1500 bytes"
param **.app.totalNodes 3
param **.destAddresses "\"0\""
param **.sendIaTime "uniform(5s, 10s)"
param **.sendIaTimeEvil 10ms

vector 0 Net5.rte[2].app endToEndDelay:vector ETV
attr interpolationmode none
attr title "end-to-end delay of arrived packets, vector"
attr unit s
vector 1 Net5.rte[1].app endToEndDelay:vector ETV
attr interpolationmode none
attr title "end-to-end delay of arrived packets, vector"
attr unit s
vector 2 Net5.rte[0].app endToEndDelay:vector ETV
attr interpolationmode none
attr title "end-to-end delay of arrived packets, vector"
attr unit s
0	7	5.377567270405	0.101666666667
0	19	5.580900603739	0.101666666667
0	49	5.784233937073	0.101666666667
0	56	6.211632523553	0.101666666667
0	68	6.414965856887	0.101666666667
0	98	6.618299190221	0.101666666667
0	111	9.556994850714	0.101666666667
0	131	9.76035040627	0.101666666667
0	141	9.762017072937	0.103333333334
0	186	16.040997329833	0.101666666667
0	206	16.2443639965	0.101666666667
0	216	16.246030663167	0.103333333334
0	229	20.832721147088	0.101666666667
0	241	21.036087813755	0.1017
0	271	21.239421147089	0.101666666667
0	284	22.061771079166	0.101666666667
0	304	22.265159968055	0.101666666667
0	314	22.266826634722	0.103333333334
0	327	24.067985772488	0.101666666667
0	339	24.271341328044	0.101688888889
0	369	24.474674661378	0.101666666667
0	376	29.140889525513	0.101666666667
0	389	29.34425619218	0.1017
0	419	29.547589525514	0.101666666667
0	494	35.713874973856	0.101666666667
0	514	35.818830529411	0.101666666667
0	546	36.022208307189	0.101711111111
1	13	5.479233937072	0.101666666667
1	33	5.682567270406	0.101666666667
1	43	5.684233937073	0.103333333334
1	83	6.516632523554	0.101666666667
1	97	6.618299190221	0.101666666667
1	132	9.76035040627	0.101666666667
1	147	9.862017072937	0.101666666667
1	164	15.041171824194	0.101666666667
1	170	15.072288458901	0.101666666667
1	207	16.2443639965	0.101666666667
1	222	16.346030663167	0.101666666667
1	256	21.137754480422	0.101666666667
1	270	21.239421147089	0.101666666667
1	278	21.960104412499	0.101666666667
1	290	22.163493301388	0.101722222222
1	320	22.366826634722	0.101666666667
1	333	24.169652439155	0.101666666667
1	353	24.373007994711	0.101666666667
1	363	24.374674661378	0.103333333334
1	382	29.24255619218	0.101666666667
1	403	29.445922858847	0.101666666667
1	413	29.447589525514	0.103333333334
1	453	35.510497196078	0.101666666667
1	493	35.713874973856	0.101666666667
1	497	35.715541640523	0.103333333334
1	530	35.920497196078	0.101666666667
2	34	5.682567270406	0.101666666667
2	48	5.784233937073	0.101666666667
2	62	6.31329919022	0.101666666667
2	82	6.516632523554	0.101666666667
2	92	6.518299190221	0.103333333334
2	105	9.455328184047	0.101666666667
2	117	9.658683739603	0.101688888889
2	146	9.862017072937	0.101666666667
2	158	14.970621792234	0.101666666667
2	173	15.142838490861	0.101666666667
2	180	15.939330663166	0.101666666667
2	192	16.142697329833	0.1017
2	221	16.346030663167	0.101666666667
2	235	20.934387813755	0.101666666667
2	255	21.137754480422	0.101666666667
2	265	21.139421147089	0.103333333334
2	305	22.265159968055	0.101666666667
2	319	22.366826634722	0.101666666667
2	354	24.373007994711	0.101666666667
2	368	24.474674661378	0.101666666667
2	404	29.445922858847	0.101666666667
2	418	29.547589525514	0.101666666667
2	437	35.408830529411	0.101666666667
2	469	35.612208307189	0.101711111111

