version 2
run General-11-20190529-16:32:56-9908
attr configname General
attr datetime 20190529-16:32:56
attr experiment General
attr inifile omnetpp.ini
attr iterationvars ""
attr iterationvarsf ""
attr measurement ""
attr network networks.Net5
attr processid 9908
attr repetition 11
attr replication #11
attr resultdir results
attr runnumber 11
attr seedset 11
param **.appType "\"App\""
param **.app.packetLength "1500 bytes"
param **.app.totalNodes 3
param **.destAddresses "\"0\""
param **.sendIaTime "uniform(5s, 10s)"
param **.sendIaTimeEvil 10ms

vector 0 Net5.rte[1].app endToEndDelay:vector ETV
attr interpolationmode none
attr title "end-to-end delay of arrived packets, vector"
attr unit s
vector 1 Net5.rte[2].app endToEndDelay:vector ETV
attr interpolationmode none
attr title "end-to-end delay of arrived packets, vector"
attr unit s
vector 2 Net5.rte[0].app endToEndDelay:vector ETV
attr interpolationmode none
attr title "end-to-end delay of arrived packets, vector"
attr unit s
0	7	5.199042867969	0.101666666667
0	20	5.402376201303	0.101666666667
0	50	5.605709534637	0.101666666667
0	84	6.308015137611	0.101666666667
0	98	6.409681804278	0.101666666667
0	106	12.131578748447	0.101666666667
0	118	12.334923192892	0.101677777778
0	151	12.538256526226	0.101666666667
0	161	12.645885594389	0.101666666667
0	181	12.849241149945	0.101666666667
0	191	12.850907816612	0.103333333334
0	231	15.135479890143	0.101666666667
0	246	15.23714655681	0.101666666667
0	253	21.840612006706	0.101666666667
0	266	22.043989784484	0.101711111111
0	283	22.247323117818	0.101666666667
0	291	22.419950317924	0.101666666667
0	330	30.032755796997	0.101666666667
0	370	30.236133574775	0.101666666667
0	374	30.237800241442	0.103333333334
0	407	30.442755796997	0.101666666667
1	13	5.300709534636	0.101666666667
1	34	5.50404286797	0.101666666667
1	44	5.505709534637	0.103333333334
1	57	6.00301513761	0.101666666667
1	69	6.206348470944	0.101666666667
1	99	6.409681804278	0.101666666667
1	133	12.436589859559	0.101666666667
1	152	12.538256526226	0.101666666667
1	182	12.849241149945	0.101666666667
1	197	12.950907816612	0.101666666667
1	210	14.932124334587	0.101666666667
1	230	15.135479890143	0.101666666667
1	240	15.13714655681	0.103333333334
1	284	22.247323117818	0.101666666667
1	297	22.521616984591	0.101666666667
1	371	30.236133574775	0.101666666667
1	391	30.34108913033	0.101666666667
1	424	30.544466908108	0.101711111111
2	35	5.50404286797	0.101666666667
2	49	5.605709534637	0.101666666667
2	63	6.104681804277	0.101666666667
2	83	6.308015137611	0.101666666667
2	93	6.309681804278	0.103333333334
2	112	12.233245415114	0.101666666667
2	132	12.436589859559	0.101666666667
2	142	12.438256526226	0.103333333334
2	155	12.544218927722	0.101666666667
2	167	12.747574483278	0.101688888889
2	196	12.950907816612	0.101666666667
2	204	14.83045766792	0.101666666667
2	216	15.033813223476	0.101688888889
2	245	15.23714655681	0.101666666667
2	260	21.942278673373	0.101666666667
2	272	22.145656451151	0.101666666667
2	314	29.93108913033	0.101666666667
2	346	30.134466908108	0.101711111111

