version 2
run General-40-20190610-18:04:04-2072
attr configname General
attr datetime 20190610-18:04:04
attr experiment General
attr inifile omnetpp.ini
attr iterationvars ""
attr iterationvarsf ""
attr measurement ""
attr network networks.Net5
attr processid 2072
attr repetition 40
attr replication #40
attr resultdir results
attr runnumber 40
attr seedset 40
param **.appType "\"App\""
param **.app.packetLength "1500 bytes"
param **.app.totalNodes 10
param **.destAddresses "\"0\""
param **.sendIaTime "uniform(5s, 10s)"
param **.sendIaTimeEvil 10ms

vector 0 Net5.rte[7].app endToEndDelay:vector ETV
attr interpolationmode none
attr title "end-to-end delay of arrived packets, vector"
attr unit s
vector 1 Net5.rte[9].app endToEndDelay:vector ETV
attr interpolationmode none
attr title "end-to-end delay of arrived packets, vector"
attr unit s
vector 2 Net5.rte[3].app endToEndDelay:vector ETV
attr interpolationmode none
attr title "end-to-end delay of arrived packets, vector"
attr unit s
vector 3 Net5.rte[2].app endToEndDelay:vector ETV
attr interpolationmode none
attr title "end-to-end delay of arrived packets, vector"
attr unit s
vector 4 Net5.rte[1].app endToEndDelay:vector ETV
attr interpolationmode none
attr title "end-to-end delay of arrived packets, vector"
attr unit s
vector 5 Net5.rte[0].app endToEndDelay:vector ETV
attr interpolationmode none
attr title "end-to-end delay of arrived packets, vector"
attr unit s
vector 6 Net5.rte[5].app endToEndDelay:vector ETV
attr interpolationmode none
attr title "end-to-end delay of arrived packets, vector"
attr unit s
vector 7 Net5.rte[8].app endToEndDelay:vector ETV
attr interpolationmode none
attr title "end-to-end delay of arrived packets, vector"
attr unit s
vector 8 Net5.rte[4].app endToEndDelay:vector ETV
attr interpolationmode none
attr title "end-to-end delay of arrived packets, vector"
attr unit s
vector 9 Net5.rte[6].app endToEndDelay:vector ETV
attr interpolationmode none
attr title "end-to-end delay of arrived packets, vector"
attr unit s
0	19	5.581830204531	0.305000000001
0	225	6.175853673381	0.208333333335
0	231	6.180853673382	0.315000000003
0	234	6.191830204533	0.305000000001
0	461	6.806830204536	0.310000000002
0	667	7.664859272837	0.313333333336
0	742	7.869859272838	0.213333333336
0	870	8.165101790067	0.211666666669
0	877	8.236067728206	0.305000000001
0	1022	8.573435123402	0.315000000003
0	1079	8.846134394874	0.305066666667
0	1121	8.931707719806	0.101666666667
0	1307	9.146007722443	0.203333333334
0	1431	9.346707719809	0.313333333336
0	1473	9.462801061544	0.311666666669
0	1476	9.552696611333	0.203355555556
0	1671	9.966029944669	0.210000000002
0	1823	13.359709501645	0.208333333335
0	1868	13.564709501646	0.311666666669
0	2058	14.557342203946	0.310000000002
0	2069	14.66067553728	0.311666666669
0	2353	16.068738427499	0.31666666667
0	2365	16.136419596716	0.101666666667
0	2483	16.239925115501	0.305000000001
0	2559	16.346419596718	0.210000000002
0	2572	16.367071760832	0.310000000002
0	2810	16.850025115502	0.305000000001
0	2839	16.858358448837	0.313333333336
0	2908	16.880438427501	0.313333333336
0	3113	17.073126759459	0.208333333335
0	3155	17.085438427502	0.213333333336
0	3251	17.281460092794	0.315000000003
0	3359	17.751160961362	0.215000000003
0	3484	18.154494294696	0.313333333336
0	3613	18.820502640646	0.101666666667
0	3646	18.827169307314	0.210000000002
0	3747	21.135399471071	0.101666666667
0	3878	21.343732804406	0.208333333335
0	4068	21.675566104182	0.311666666669
0	4116	21.878899437516	0.311666666669
0	4303	22.28872145429	0.315000000003
0	4456	22.492054787624	0.213333333336
0	4503	22.579561864798	0.311666666669
0	4552	22.782895198132	0.311666666669
0	4609	23.131338095825	0.101666666667
0	4726	23.341338095827	0.210000000002
0	5069	24.978884754942	0.210000000002
0	5098	25.050248034871	0.311666666669
0	5145	25.150248034871	0.310000000002
0	5162	25.183884754943	0.313333333336
0	5184	25.370465124856	0.305000000001
0	5320	25.624006717512	0.208333333335
0	5464	25.832340050847	0.315000000003
0	5507	25.98059845819	0.305000000001
0	5536	25.988931791525	0.313333333336
0	5814	26.682610899999	0.31666666667
0	5846	26.880944233332	0.311666666669
0	6031	28.264709890223	0.101666666667
0	6067	28.276376556892	0.31666666667
0	6217	28.793333726079	0.210000000002
0	6284	29.09833372608	0.311666666669
0	6436	30.069210031424	0.215000000003
0	6507	30.26587669809	0.208333333335
0	6525	30.741343317853	0.305000000001
0	6713	31.356831724963	0.210000000002
0	6716	31.358587280518	0.312243962664
0	6823	31.55849839163	0.310000000002
0	6912	31.722492179899	0.305000000001
0	7007	31.976920613855	0.313333333336
0	7047	32.327097553193	0.305000000001
0	7159	32.937297553193	0.305000000001
0	7188	32.945630886528	0.313333333336
0	7345	34.804161185468	0.101666666667
0	7520	35.220827852138	0.315000000003
0	7602	35.688040197132	0.101666666667
0	7814	36.101373530468	0.311666666669
0	7891	36.220611292126	0.31666666667
0	7952	36.422277958793	0.213333333336
0	8123	37.624939200746	0.210000000002
0	8197	37.91024982856	0.101666666667
0	8206	37.929939200747	0.311666666669
0	8248	38.113660939671	0.101666666667
0	8279	38.115327606338	0.103333333334
0	8406	39.373989716837	0.203333333334
0	8426	39.780811939059	0.203488888888
0	8617	40.192478605728	0.208333333335
0	8816	40.857793805231	0.311666666669
0	8831	40.957793805231	0.310000000002
0	9012	41.396154243715	0.310000000002
0	9030	41.499487577049	0.311666666669
0	9132	42.109942448292	0.203333333334
0	9220	42.294421191266	0.313333333336
0	9300	42.499421191267	0.315000000003
0	9303	42.516742448292	0.203466666666
0	9534	42.933409114962	0.213333333336
0	9738	43.286266885358	0.31666666667
0	9778	43.484600218691	0.311666666669
0	9791	43.778961642811	0.203333333334
0	9872	44.185850531701	0.203333333334
0	9908	44.192517198369	0.210000000002
0	10211	47.491018130888	0.311666666669
0	10235	47.592684797555	0.210000000002
0	10470	48.377412782392	0.210000000002
0	10580	48.579079449059	0.310000000002
0	10656	48.628264425624	0.315000000003
0	10768	48.807129106454	0.101666666667
0	10809	48.818795773123	0.215000000003
0	10836	48.826597758957	0.208333333335
0	11046	49.749511385376	0.313333333336
0	11104	49.954511385377	0.315000000003
0	11136	51.288618170788	0.305000000001
0	11255	51.898984837456	0.305000000001
0	11296	51.910651504125	0.31666666667
0	11726	53.063062443041	0.311666666669
0	11781	53.115303300948	0.31666666667
0	11845	53.268062443042	0.313333333336
0	11851	53.313636634281	0.311666666669
0	12092	54.175320797243	0.210000000002
0	12106	54.183654130578	0.320000000004
0	12283	54.554903879649	0.310000000002
0	12304	54.656570546316	0.208333333335
0	12414	55.199602370695	0.211666666669
0	12527	55.60793570403	0.315000000003
0	12697	56.993484063816	0.210000000002
0	12737	57.195150730483	0.310000000002
0	12744	57.377859623802	0.203333333334
0	12852	57.784792957136	0.203333333334
0	12898	57.796459623805	0.215000000003
0	12917	57.875210592024	0.203333333334
0	13169	58.282077258692	0.203533333334
0	13234	58.324044002432	0.311666666669
0	13414	58.529044002433	0.313333333336
0	13542	58.659027350537	0.101666666667
0	13581	58.667360683872	0.211666666669
0	13602	58.698743925362	0.213333333336
0	13780	60.645459849951	0.215000000003
0	13910	61.047126516618	0.311666666669
0	14043	61.575155918827	0.211666666669
0	14094	61.775155918827	0.208333333335
0	14223	62.682694960329	0.101666666667
0	14433	63.096028293665	0.311666666669
0	14456	63.14657546345	0.211666666669
0	14569	63.554908796785	0.315000000003
0	14763	65.692820045814	0.310000000002
0	14938	66.042928319357	0.203333333334
0	15053	66.21163715523	0.311666666669
0	15115	66.31163715523	0.310000000002
0	15183	66.449906097135	0.203333333334
0	15226	66.45823943047	0.211666666669
1	25	5.662520340045	0.101666666667
1	46	5.865853673379	0.101666666667
1	165	6.069187006713	0.101666666667
1	388	6.511830204537	0.320000000004
1	404	6.598496871201	0.101666666667
1	449	6.741525939499	0.305000000001
1	508	7.351525939501	0.305000000001
1	802	7.974859272839	0.318333333337
1	864	8.160101790066	0.206666666668
1	995	8.475101790069	0.21666666667
1	1003	8.541067728207	0.305000000001
1	1230	9.038374386474	0.208333333335
1	1313	9.151134394875	0.305000000001
1	1355	9.166134394878	0.320000000004
1	1369	9.240041053141	0.206666666668
1	1652	9.872696611337	0.320000000004
1	1665	9.962696611335	0.206666666668
1	1736	13.253042834977	0.101666666667
1	1854	13.461376168312	0.208333333335
1	1881	14.145642203944	0.101666666667
1	1926	14.349008870611	0.101666666667
1	1957	14.350675537278	0.103333333334
1	2224	15.9349251155	0.305000000001
1	2266	15.970405094166	0.218333333337
1	2431	16.158738427497	0.101666666667
1	2507	16.243086263384	0.208333333335
1	2552	16.343086263384	0.206666666668
1	2586	16.545025115501	0.3051
1	2795	16.7754384275	0.208333333335
1	2964	16.966460092791	0.101666666667
1	3182	17.168358448839	0.318333333337
1	3223	17.183126759461	0.21666666667
1	3229	17.190438427503	0.318333333337
1	3412	17.856160961363	0.320000000004
1	3460	18.047827628028	0.206666666668
1	3548	18.718835973979	0.101666666667
1	3664	18.927169307314	0.208333333335
1	3803	21.160454993069	0.203333333334
1	3822	21.237066137738	0.101666666667
1	3854	21.243732804406	0.210000000002
1	3970	21.567232770847	0.203333333334
1	4016	21.573899437515	0.210000000002
1	4103	21.861161864795	0.203333333334
1	4218	22.180388120955	0.206666666668
1	4233	22.267895198129	0.2034
1	4519	22.597054787625	0.318333333337
1	4537	22.679561864798	0.208333333335
1	4702	23.238004762493	0.208333333335
1	4720	23.338004762493	0.206666666668
1	4977	24.941914701536	0.101666666667
1	5015	24.948581368204	0.210000000002
1	5055	24.975551421608	0.206666666668
1	5101	25.065465124855	0.305000000001
1	5121	25.077218088275	0.206666666668
1	5236	25.517340050844	0.101666666667
1	5344	25.675598458189	0.305133333333
1	5406	25.734006717514	0.21666666667
1	5582	26.162433122217	0.203333333334
1	5633	26.298931791527	0.318333333337
1	5708	26.569277566663	0.203333333334
1	5764	26.584277566666	0.218333333337
1	6018	28.178043223559	0.218333333337
1	6089	28.371376556891	0.208333333335
1	6211	28.791667059412	0.208333333335
1	6273	28.995000392746	0.208333333335
1	6456	30.159210031422	0.101666666667
1	6491	30.174210031425	0.320000000004
1	6677	31.350165058295	0.101666666667
1	6708	31.355165058296	0.208333333335
1	6905	31.678587280522	0.320000000004
1	6971	31.870253947187	0.206666666668
1	7020	32.0274921799	0.305000000001
1	7148	32.840630886527	0.208333333335
1	7271	33.25563088653	0.318333333337
1	7409	34.912494518803	0.210000000002
1	7494	35.122494518805	0.21666666667
1	7674	35.796373530467	0.210000000002
1	7764	35.998040197134	0.208333333335
1	7847	36.122277958793	0.218333333337
1	7975	36.527277958794	0.318333333337
1	7996	37.21140586741	0.203333333334
1	8080	37.618272534078	0.203333333334
1	8117	37.623272534079	0.208333333335
1	8331	38.220327606339	0.208333333335
1	8395	38.431994273008	0.318333333337
1	8566	40.08581193906	0.101666666667
1	8601	40.100811939063	0.320000000004
1	8627	40.342738249673	0.101666666667
1	8639	40.546127138562	0.101722222222
1	8748	40.749460471896	0.101666666667
1	8882	41.18782091038	0.101666666667
1	9011	41.396154243715	0.208333333335
1	9174	42.189421191265	0.208333333335
1	9272	42.401087857934	0.21666666667
1	9456	42.76602244091	0.203333333334
1	9509	42.836742448296	0.320000000004
1	9590	43.038409114963	0.318333333337
1	9632	43.172933552022	0.203333333334
1	9688	43.187933552025	0.218333333337
1	9843	44.084183865034	0.101666666667
1	9995	44.504183865038	0.318333333337
1	10011	46.772507019773	0.203333333334
1	10025	46.890632372084	0.203333333334
1	10048	47.179351464219	0.203511111112
1	10229	47.589351464221	0.206666666668
1	10434	48.370746115724	0.101666666667
1	10465	48.375746115725	0.208333333335
1	10558	48.519931092289	0.206666666668
1	10728	48.719931092289	0.101666666667
1	10854	48.913795773122	0.208333333335
1	10870	48.923795773124	0.320000000004
1	10877	49.02928916315	0.203333333334
1	10897	49.43617805204	0.203555555556
1	11088	49.856178052044	0.21666666667
1	11252	51.812318170792	0.218333333337
1	11388	52.217318170793	0.318333333337
1	11425	52.594992189834	0.203333333334
1	11628	52.961395776374	0.210000000002
1	11635	53.001969967612	0.203333333334
1	11691	53.016969967615	0.218333333337
1	11795	53.161395776374	0.206666666668
1	12025	54.070320797242	0.206666666668
1	12080	54.171987463909	0.206666666668
1	12161	54.346570546314	0.101666666667
1	12255	54.549903879648	0.101666666667
1	12408	55.194602370694	0.206666666668
1	12511	55.509602370697	0.21666666667
1	12661	56.986817397148	0.101666666667
1	12692	56.991817397149	0.208333333335
1	12970	57.901459623806	0.320000000004
1	13061	58.103126290473	0.318333333337
1	13156	58.222377335765	0.210000000002
1	13298	58.422377335765	0.206666666668
1	13527	58.602077258696	0.320000000004
1	13563	58.662360683871	0.206666666668
1	13625	58.765694017205	0.208333333335
1	13643	58.803743925363	0.318333333337
1	13833	60.750459849952	0.320000000004
1	13893	60.943793183284	0.208333333335
1	14034	61.570155918826	0.206666666668
1	14055	61.668489252159	0.101666666667
1	14116	62.032034696744	0.203333333334
1	14157	62.377361626996	0.203333333334
1	14256	62.784361626996	0.203333333334
1	14295	62.791028293664	0.210000000002
1	14450	63.141575463449	0.206666666668
1	14553	63.456575463452	0.21666666667
1	14673	65.484486712479	0.101666666667
1	14766	65.696514933005	0.101666666667
1	14819	65.899970488561	0.101788888889
1	14966	66.103303821895	0.101666666667
1	15216	66.453239430469	0.206666666668
2	36	5.764187006712	0.101666666667
2	87	5.967520340046	0.101666666667
2	125	5.97085367338	0.105000000001
2	325	6.401830204535	0.210000000002
2	437	6.701830204535	0.205000000001
2	569	7.456525939502	0.105000000001
2	736	7.864859272837	0.208333333335
2	863	8.160101790066	0.206666666668
2	932	8.3634351234	0.105000000001
2	1129	8.933374386473	0.103333333334
2	1256	9.056134394876	0.210000000002
2	1397	9.254467728209	0.103333333334
2	1425	9.340041053141	0.306666666668
2	1589	9.762696611335	0.210000000002
2	1661	9.961029944668	0.205000000001
2	1681	12.948042834976	0.101666666667
2	1694	13.15137616831	0.101666666667
2	1802	13.356376168311	0.103333333334
2	1999	14.452342203945	0.103333333334
2	2001	14.452342203945	0.205000000001
2	2190	15.858738427497	0.106666666668
2	2393	16.138086263383	0.103333333334
2	2523	16.262071760831	0.205000000001
2	2545	16.341419596717	0.205000000001
2	2677	16.650025115502	0.105000000001
2	2698	16.661437870568	0.101666666667
2	2721	16.672105094166	0.105000000001
2	2845	16.864793426124	0.101688888889
2	3069	17.058358448837	0.208333333335
2	3106	17.071460092792	0.105000000001
2	3144	17.080438427501	0.208333333335
2	3353	17.746160961361	0.210000000002
2	3478	18.147827628028	0.306666666668
2	3494	18.413813751756	0.101666666667
2	3506	18.617169307312	0.101688888889
2	3623	18.822169307313	0.103333333334
2	3685	20.932021693293	0.101666666667
2	3744	21.135399471071	0.101666666667
2	3785	21.138732804405	0.105000000001
2	3938	21.467232770847	0.103333333334
2	4042	21.670566104181	0.103333333334
2	4293	22.282054787622	0.308333333335
2	4320	22.371228531463	0.103333333334
2	4450	22.487054787623	0.208333333335
2	4477	22.574561864797	0.103333333334
2	4637	23.133004762492	0.103333333334
2	4716	23.336338095826	0.205000000001
2	4866	24.841914701536	0.103333333334
2	5043	24.973884754941	0.205000000001
2	5083	25.04524803487	0.205000000001
2	5156	25.177218088275	0.306666666668
2	5165	25.21230671751	0.101666666667
2	5190	25.415673384177	0.1017
2	5313	25.622340050845	0.105000000001
2	5430	25.78059845819	0.105000000001
2	5600	26.188931791525	0.208333333335
2	5681	26.472610899997	0.106666666668
2	5779	26.672610899997	0.103333333334
2	5926	28.06637655689	0.106666666668
2	6040	28.26637655689	0.103333333334
2	6199	28.788333726078	0.205000000001
2	6234	28.890000392745	0.103333333334
2	6306	29.650743364755	0.203333333334
2	6388	30.057543364755	0.203333333334
2	6430	30.064210031423	0.210000000002
2	6688	31.351831724962	0.205000000001
2	6762	31.453498391629	0.205000000001
2	6842	31.56858728052	0.210000000002
2	7001	31.970253947187	0.306666666668
2	7111	32.737297553193	0.105000000001
2	7242	33.145630886528	0.208333333335
2	7360	34.807494518802	0.105000000001
2	7433	35.010827852136	0.105000000001
2	7617	35.691373530466	0.105000000001
2	7692	35.893040197133	0.103333333334
2	7784	36.010611292124	0.106666666668
2	7946	36.417277958792	0.208333333335
2	8105	37.619939200745	0.205000000001
2	8144	37.721605867412	0.103333333334
2	8280	38.115327606338	0.103333333334
2	8366	38.321994273006	0.208333333335
2	8416	39.577323050171	0.203333333334
2	8498	39.984145272393	0.203333333334
2	8540	39.990811939061	0.210000000002
2	8704	40.649460471896	0.103333333334
2	8801	40.85279380523	0.205000000001
2	8947	41.291154243714	0.103333333334
2	8984	41.299487577049	0.213333333336
2	9111	42.086087857931	0.105000000001
2	9203	42.289421191265	0.105000000001
2	9434	42.726742448294	0.210000000002
2	9528	42.928409114961	0.208333333335
2	9605	43.076266885356	0.106666666668
2	9703	43.276266885356	0.103333333334
2	9781	43.575628309477	0.203333333334
2	9801	43.982517198367	0.203555555556
2	9966	44.394183865036	0.208333333335
2	10092	47.282684797553	0.103333333334
2	10225	47.587684797554	0.205000000001
2	10269	48.00796442562	0.305000000001
2	10445	48.372412782391	0.205000000001
2	10526	48.474079449058	0.205000000001
2	10614	48.618264425622	0.305000000001
2	10647	48.621597758956	0.308333333335
2	10775	48.808795773121	0.103333333334
2	10805	48.815462439789	0.211666666669
2	10947	49.541178052041	0.105000000001
2	11029	49.744511385375	0.105000000001
2	11195	51.700651504123	0.106666666668
2	11351	52.107318170791	0.208333333335
2	11516	52.854729109706	0.103333333334
2	11555	52.905303300946	0.106666666668
2	11746	53.105303300946	0.103333333334
2	11839	53.261395776374	0.306666666668
2	11992	54.041348324091	0.203333333334
2	12028	54.071462754726	0.101666666667
2	12076	54.170320797242	0.205000000001
2	12100	54.178654130577	0.315000000003
2	12194	54.448237212981	0.203333333334
2	12230	54.451570546315	0.206666666668
2	12407	55.194602370694	0.206666666668
2	12458	55.397935704028	0.105000000001
2	12672	56.988484063815	0.205000000001
2	12713	57.090150730482	0.205000000001
2	12889	57.791459623804	0.210000000002
2	12993	57.993126290471	0.208333333335
2	13075	58.115710669097	0.103333333334
2	13382	58.492077258694	0.210000000002
2	13408	58.522377335765	0.306666666668
2	13551	58.660694017204	0.103333333334
2	13580	58.667360683872	0.211666666669
2	13596	58.693743925361	0.208333333335
2	13774	60.64045984995	0.210000000002
2	13850	60.838793183283	0.103333333334
2	13917	61.15991147438	0.203333333334
2	13997	61.566822585492	0.203333333334
2	14033	61.570155918826	0.206666666668
2	14238	62.686028293663	0.105000000001
2	14313	62.88769496033	0.103333333334
2	14449	63.141575463449	0.206666666668
2	14500	63.344908796783	0.105000000001
2	14719	65.587820045813	0.205000000001
2	14902	66.003303821895	0.103333333334
2	15037	66.206637155229	0.205000000001
2	15215	66.453239430469	0.206666666668
2	15321	66.65823943047	0.208333333335
3	79	5.886830204532	0.305000000001
3	117	5.969187006713	0.103333333334
3	219	6.172520340047	0.205000000001
3	346	6.496830204534	0.305000000001
3	381	6.501830204535	0.310000000002
3	560	7.454859272835	0.103333333334
3	796	7.964859272837	0.308333333335
3	815	8.055101790065	0.101666666667
3	1013	8.565101790067	0.306666666668
3	1224	9.036707719807	0.206666666668
3	1276	9.13504105314	0.101666666667
3	1346	9.156134394876	0.310000000002
3	1398	9.254467728209	0.103333333334
3	1613	9.857696611334	0.101666666667
3	1641	9.862696611335	0.310000000002
3	1803	13.356376168311	0.103333333334
3	1836	13.363042834979	0.211666666669
3	1875	14.043975537277	0.101666666667
3	1887	14.247342203944	0.1017
3	2000	14.452342203945	0.103333333334
3	2098	15.447005094162	0.305000000001
3	2306	16.05707176083	0.305000000001
3	2343	16.062071760831	0.310000000002
3	2470	16.238086263383	0.101666666667
3	2506	16.243086263384	0.208333333335
3	2671	16.648358448835	0.103333333334
3	2715	16.670438427499	0.103333333334
3	3100	17.069793426125	0.205000000001
3	3176	17.158358448837	0.308333333335
3	3216	17.180438427501	0.308333333335
3	3242	17.273126759459	0.306666666668
3	3403	17.846160961361	0.310000000002
3	3418	17.942827628027	0.101666666667
3	3625	18.822169307313	0.205000000001
3	3658	18.92383597398	0.205000000001
3	3836	21.238732804405	0.205000000001
3	3872	21.340399471072	0.205000000001
3	3944	21.468899437514	0.105000000001
3	4043	21.670566104181	0.103333333334
3	4165	22.075388120954	0.101666666667
3	4326	22.37289519813	0.105000000001
3	4478	22.574561864797	0.103333333334
3	4513	22.587054787623	0.308333333335
3	4671	23.233004762492	0.101666666667
3	4701	23.238004762493	0.208333333335
3	4752	24.636881368202	0.101666666667
3	4836	24.840248034869	0.101666666667
3	4874	24.843581368203	0.105000000001
3	4908	24.870551421607	0.101666666667
3	5030	24.972218088274	0.101666666667
3	5307	25.620673384178	0.205000000001
3	5424	25.778931791523	0.103333333334
3	5455	25.824006717512	0.306666666668
3	5627	26.288931791525	0.308333333335
3	5780	26.672610899997	0.103333333334
3	5791	26.674277566664	0.308333333335
3	6053	28.268043223557	0.308333333335
3	6082	28.368043223557	0.205000000001
3	6148	28.686667059411	0.103333333334
3	6235	28.890000392745	0.103333333334
3	6484	30.164210031423	0.310000000002
3	6501	30.262543364756	0.205000000001
3	6549	31.04512061385	0.101666666667
3	6602	31.248498391628	0.101666666667
3	6632	31.250165058295	0.103333333334
3	6896	31.66858728052	0.310000000002
3	6921	31.765253947186	0.101666666667
3	7105	32.735630886526	0.103333333334
3	7265	33.245630886528	0.308333333335
3	7400	34.907494518802	0.205000000001
3	7511	35.212494518803	0.306666666668
3	7662	35.791373530466	0.205000000001
3	7693	35.893040197133	0.103333333334
3	7877	36.212277958791	0.308333333335
3	7969	36.517277958792	0.308333333335
3	8053	37.518272534078	0.103333333334
3	8145	37.721605867412	0.103333333334
3	8317	38.216994273005	0.205000000001
3	8389	38.421994273006	0.308333333335
3	8594	40.090811939061	0.310000000002
3	8611	40.189145272394	0.205000000001
3	8633	40.44440491634	0.101666666667
3	8674	40.647793805229	0.101666666667
3	8712	40.651127138563	0.105000000001
3	8819	40.88273202149	0.101666666667
3	8840	41.086154243713	0.101755555556
3	8948	41.291154243714	0.103333333334
3	9105	42.084421191264	0.103333333334
3	9287	42.491087857932	0.306666666668
3	9483	42.826742448294	0.310000000002
3	9584	43.028409114961	0.308333333335
3	9704	43.276266885356	0.103333333334
3	9715	43.277933552023	0.308333333335
3	9899	44.187517198368	0.205000000001
3	9989	44.494183865036	0.308333333335
3	10098	47.28435146422	0.105000000001
3	10182	47.48435146422	0.101666666667
3	10275	48.065668337946	0.101666666667
3	10326	48.269079449057	0.101666666667
3	10356	48.270746115724	0.103333333334
3	10482	48.414931092288	0.101666666667
3	10826	48.823264425623	0.205000000001
3	10846	48.910462439788	0.205000000001
3	10861	48.915462439789	0.311666666669
3	10941	49.539511385374	0.103333333334
3	11095	49.946178052042	0.306666666668
3	11282	51.90231817079	0.308333333335
3	11382	52.207318170791	0.308333333335
3	11522	52.856395776373	0.105000000001
3	11697	53.056395776373	0.101666666667
3	11747	53.105303300946	0.103333333334
3	11758	53.106969967613	0.308333333335
3	11881	53.838014990757	0.203333333334
3	11927	53.965320797241	0.101666666667
3	12004	54.066987463908	0.101666666667
3	12109	54.244903879647	0.203555555556
3	12298	54.653237212982	0.205000000001
3	12363	55.089602370693	0.101666666667
3	12518	55.599602370695	0.306666666668
3	12543	56.681717397147	0.101666666667
3	12586	56.885150730481	0.101666666667
3	12616	56.886817397148	0.103333333334
3	12944	57.891459623804	0.310000000002
3	13055	58.093126290471	0.308333333335
3	13081	58.117377335764	0.105000000001
3	13205	58.317377335764	0.101666666667
3	13423	58.55736068387	0.101666666667
3	13501	58.592077258694	0.310000000002
3	13619	58.762360683871	0.205000000001
3	13637	58.793743925361	0.308333333335
3	13824	60.74045984995	0.310000000002
3	13851	60.838793183283	0.103333333334
3	13966	61.465155918825	0.101666666667
3	14088	61.771822585493	0.205000000001
3	14283	62.786028293663	0.205000000001
3	14314	62.88769496033	0.103333333334
3	14399	63.036575463448	0.101666666667
3	14560	63.54657546345	0.306666666668
3	14589	65.179386712478	0.101666666667
3	14621	65.382820045812	0.101766666667
3	14791	65.798181599672	0.101666666667
3	14872	66.001637155228	0.101666666667
3	14910	66.004970488562	0.105000000001
3	15134	66.348239430468	0.101666666667
4	161	6.069187006713	0.203333333334
4	267	6.272520340047	0.305000000001
4	376	6.500163537868	0.308333333335
4	402	6.598496871201	0.101666666667
4	598	7.554859272835	0.203333333334
4	792	7.96319260617	0.306666666668
4	814	8.055101790065	0.101666666667
4	1025	8.626707719805	0.203333333334
4	1035	8.665101790067	0.406666666668
4	1193	9.033374386473	0.203333333334
4	1217	9.03504105314	0.205000000001
4	1341	9.154467728209	0.308333333335
4	1443	9.354467728209	0.203333333334
4	1612	9.857696611334	0.101666666667
4	1634	9.861029944668	0.308333333335
4	1842	13.456376168311	0.203333333334
4	1861	13.463042834979	0.311666666669
4	1928	14.349008870611	0.101666666667
4	2037	14.552342203945	0.203333333334
4	2429	16.158738427497	0.101666666667
4	2453	16.162071760831	0.410000000002
4	2469	16.238086263383	0.101666666667
4	2480	16.23975293005	0.205000000001
4	2749	16.748358448835	0.203333333334
4	2782	16.770438427499	0.203333333334
4	3173	17.15669178217	0.306666666668
4	3187	17.169793426125	0.305000000001
4	3209	17.178771760834	0.306666666668
4	3232	17.231127628025	0.305000000001
4	3258	17.373126759459	0.406666666668
4	3370	17.84116096136	0.305000000001
4	3398	17.844494294694	0.308333333335
4	3653	18.922169307313	0.305000000001
4	3655	18.922169307313	0.203333333334
4	3818	21.237066137738	0.203333333334
4	3881	21.363621454286	0.305000000001
4	3920	21.440399471072	0.305000000001
4	3995	21.568899437514	0.205000000001
4	4082	21.770566104181	0.203333333334
4	4123	21.973721454287	0.3051
4	4411	22.47289519813	0.205000000001
4	4510	22.585388120956	0.306666666668
4	4525	22.674561864797	0.203333333334
4	4670	23.233004762492	0.101666666667
4	4681	23.234671429159	0.205000000001
4	4758	24.66718475494	0.101666666667
4	4906	24.870551421607	0.101666666667
4	4936	24.872218088274	0.103333333334
4	4975	24.941914701536	0.101666666667
4	4987	24.943581368203	0.205000000001
4	5379	25.720673384178	0.305000000001
4	5474	25.878931791523	0.203333333334
4	5498	25.924006717512	0.406666666668
4	5624	26.287265124858	0.306666666668
4	5820	26.772610899997	0.203333333334
4	5823	26.774277566664	0.408333333335
4	6077	28.36637655689	0.203333333334
4	6083	28.368043223557	0.408333333335
4	6141	28.685000392744	0.101666666667
4	6261	28.990000392745	0.203333333334
4	6477	30.162543364756	0.308333333335
4	6510	30.362543364756	0.305000000001
4	6554	31.046343317854	0.305000000001
4	6604	31.248498391628	0.101666666667
4	6675	31.350165058295	0.101666666667
4	6863	31.663587280519	0.305000000001
4	6891	31.666920613853	0.308333333335
4	7135	32.835630886526	0.203333333334
4	7262	33.243964219861	0.306666666668
4	7375	34.905827852135	0.203333333334
4	7533	35.312494518803	0.406666666668
4	7636	35.789706863799	0.203333333334
4	7752	35.993040197133	0.203333333334
4	7903	36.312277958791	0.408333333335
4	7966	36.515611292125	0.306666666668
4	8046	37.516605867411	0.101666666667
4	8177	37.821605867412	0.203333333334
4	8309	38.215327606338	0.203333333334
4	8386	38.420327606339	0.306666666668
4	8587	40.089145272394	0.308333333335
4	8624	40.289145272394	0.305000000001
4	8746	40.749460471896	0.101666666667
4	8758	40.751127138563	0.205000000001
4	8880	41.18782091038	0.101666666667
4	8994	41.391154243714	0.203333333334
4	9141	42.184421191264	0.203333333334
4	9342	42.591087857932	0.406666666668
4	9476	42.825075781627	0.308333333335
4	9581	43.026742448294	0.306666666668
4	9748	43.376266885356	0.203333333334
4	9751	43.377933552023	0.408333333335
4	9918	44.287517198368	0.305000000001
4	9986	44.492517198369	0.306666666668
4	10146	47.38435146422	0.205000000001
4	10181	47.48435146422	0.101666666667
4	10245	47.702964425619	0.305000000001
4	10328	48.269079449057	0.101666666667
4	10389	48.313264425621	0.305300000001
4	10432	48.370746115724	0.101666666667
4	10843	48.908795773121	0.203333333334
4	10855	48.913795773122	0.310000000002
4	10867	48.923264425623	0.305000000001
4	10971	49.639511385374	0.203333333334
4	11107	50.046178052042	0.406666666668
4	11308	52.00231817079	0.408333333335
4	11379	52.205651504124	0.306666666668
4	11419	52.547929109706	0.203333333334
4	11584	52.954729109706	0.203333333334
4	11608	52.956395776373	0.205000000001
4	11812	53.205303300946	0.203333333334
4	11815	53.206969967613	0.408333333335
4	11865	53.660209686129	0.101666666667
4	11887	53.863654130574	0.101777777778
4	12003	54.066987463908	0.101666666667
4	12159	54.346570546314	0.101666666667
4	12313	54.753237212982	0.305000000001
4	12362	55.089602370693	0.101666666667
4	12530	55.699602370695	0.406666666668
4	12588	56.885150730481	0.101666666667
4	12659	56.986817397148	0.101666666667
4	12911	57.808866224651	0.203333333334
4	12937	57.889792957137	0.308333333335
4	13052	58.091459623804	0.306666666668
4	13112	58.215710669097	0.203333333334
4	13136	58.217377335764	0.205000000001
4	13422	58.55736068387	0.101666666667
4	13494	58.590410592027	0.308333333335
4	13616	58.760694017204	0.203333333334
4	13634	58.792077258694	0.306666666668
4	13819	60.738793183283	0.308333333335
4	13881	60.938793183283	0.203333333334
4	13965	61.465155918825	0.101666666667
4	14101	61.871822585493	0.305000000001
4	14257	62.784361626996	0.203333333334
4	14373	62.98769496033	0.203333333334
4	14398	63.036575463448	0.101666666667
4	14572	63.64657546345	0.406666666668
4	14605	65.281053379145	0.101666666667
4	14670	65.484486712479	0.101666666667
4	14681	65.486153379146	0.103333333334
4	14964	66.103303821895	0.101666666667
4	14976	66.104970488562	0.205000000001
4	15102	66.301053379147	0.406666666668
4	15133	66.348239430468	0.101666666667
5	162	6.069187006713	0.101666666667
5	176	6.07085367338	0.205000000001
5	371	6.498496871201	0.306666666668
5	455	6.801830204535	0.305000000001
5	602	7.556525939502	0.205000000001
5	628	7.648435123397	0.305000000001
5	788	7.961525939503	0.305000000001
5	883	8.258435123399	0.305000000001
5	905	8.260101790066	0.306666666668
5	1194	9.033374386473	0.203333333334
5	1336	9.152801061542	0.306666666668
5	1442	9.354467728209	0.203333333334
5	1463	9.440041053141	0.406666666668
5	1623	9.859363278001	0.306666666668
5	1674	10.061029944668	0.305000000001
5	1734	13.253042834977	0.101666666667
5	1841	13.456376168311	0.203333333334
5	2036	14.552342203945	0.305000000001
5	2040	14.554008870612	0.205000000001
5	2084	15.142005094161	0.305000000001
5	2128	15.752071760829	0.305066666667
5	2467	16.238086263383	0.203333333334
5	2562	16.362071760831	0.305000000001
5	2575	16.441419596717	0.305000000001
5	2753	16.750025115502	0.205000000001
5	2773	16.763104537235	0.101666666667
5	2786	16.772105094166	0.205000000001
5	2961	16.966460092791	0.101666666667
5	2993	16.968126759458	0.103333333334
5	3170	17.155025115503	0.305000000001
5	3203	17.177105094167	0.305000000001
5	3393	17.842827628027	0.306666666668
5	3487	18.247827628028	0.406666666668
5	3546	18.718835973979	0.101666666667
5	3654	18.922169307313	0.203333333334
5	3819	21.237066137738	0.101666666667
5	3835	21.238732804405	0.205000000001
5	3971	21.567232770847	0.203333333334
5	4081	21.770566104181	0.203333333334
5	4354	22.382054787622	0.408333333335
5	4388	22.471228531463	0.203333333334
5	4507	22.583721454289	0.305000000001
5	4524	22.674561864797	0.203333333334
5	4668	23.233004762492	0.203333333334
5	4729	23.436338095826	0.305000000001
5	4973	24.941914701536	0.203333333334
5	5109	25.073884754941	0.305000000001
5	5139	25.14524803487	0.305000000001
5	5175	25.277218088275	0.406666666668
5	5178	25.313973384177	0.101666666667
5	5233	25.517340050844	0.101666666667
5	5264	25.519006717511	0.103333333334
5	5478	25.88059845819	0.205000000001
5	5501	25.959099788883	0.203333333334
5	5621	26.285598458191	0.305000000001
5	5636	26.365944233329	0.203511111112
5	5819	26.772610899997	0.203333333334
5	5857	27.552932112444	0.203333333334
5	5877	27.959709890222	0.203444444444
5	6076	28.36637655689	0.203333333334
5	6225	28.888333726078	0.305000000001
5	6260	28.990000392745	0.203333333334
5	6453	30.159210031422	0.101666666667
5	6467	30.160876698089	0.306666666668
5	6755	31.451831724962	0.305000000001
5	6817	31.553498391629	0.305000000001
5	6886	31.665253947186	0.306666666668
5	7023	32.070253947187	0.406666666668
5	7139	32.837297553193	0.205000000001
5	7259	33.242297553194	0.305000000001
5	7292	34.499027852135	0.203333333334
5	7374	34.905827852135	0.203333333334
5	7399	34.907494518802	0.205000000001
5	7527	35.293777958789	0.305000000001
5	7661	35.791373530466	0.205000000001
5	7716	35.903944625456	0.305166666666
5	7751	35.993040197133	0.203333333334
5	7963	36.513944625458	0.305000000001
5	8135	37.719939200745	0.305000000001
5	8176	37.821605867412	0.203333333334
5	8308	38.215327606338	0.203333333334
5	8383	38.418660939672	0.305000000001
5	8563	40.08581193906	0.101666666667
5	8577	40.087478605727	0.306666666668
5	8744	40.749460471896	0.203333333334
5	8825	40.95279380523	0.305000000001
5	8993	41.391154243714	0.203333333334
5	9020	41.399487577049	0.313333333336
5	9043	41.777576746818	0.203333333334
5	9140	42.184421191264	0.203333333334
5	9163	42.186087857931	0.205000000001
5	9336	42.562689107576	0.203333333334
5	9469	42.82340911496	0.306666666668
5	9545	42.969600218688	0.203577777778
5	9578	43.025075781627	0.305000000001
5	9747	43.376266885356	0.203333333334
5	9841	44.084183865034	0.101666666667
5	9983	44.490850531702	0.305000000001
5	10122	47.382684797553	0.203333333334
5	10242	47.687684797554	0.305000000001
5	10519	48.472412782391	0.305000000001
5	10574	48.574079449058	0.305000000001
5	10725	48.719931092289	0.101666666667
5	10743	48.721597758956	0.408333333335
5	10842	48.908795773121	0.203333333334
5	10860	48.915462439789	0.311666666669
5	10887	49.232622496484	0.203333333334
5	10970	49.639511385374	0.203333333334
5	10993	49.641178052041	0.205000000001
5	11122	50.983618170787	0.305000000001
5	11150	51.593984837455	0.305366666667
5	11376	52.203984837457	0.305000000001
5	11405	52.3916588565	0.203333333334
5	11472	52.798636634278	0.203644444444
5	11585	52.954729109706	0.203333333334
5	11811	53.205303300946	0.203333333334
5	11854	53.361395776374	0.406666666668
5	12142	54.270320797242	0.305000000001
5	12149	54.278654130577	0.415000000003
5	12252	54.549903879648	0.101666666667
5	12266	54.551570546315	0.306666666668
5	12307	54.682502370693	0.305000000001
5	12417	55.292935704027	0.305000000001
5	12439	55.294602370694	0.306666666668
5	12706	57.088484063815	0.305000000001
5	12731	57.190150730482	0.305000000001
5	12930	57.88812629047	0.306666666668
5	13049	58.089792957137	0.305000000001
5	13113	58.215710669097	0.203333333334
5	13487	58.58874392536	0.306666666668
5	13530	58.622377335765	0.406666666668
5	13615	58.760694017204	0.203333333334
5	13628	58.767360683872	0.311666666669
5	13631	58.790410592027	0.305000000001
5	13814	60.737126516616	0.306666666668
5	13880	60.938793183283	0.203333333334
5	14052	61.668489252159	0.101666666667
5	14066	61.670155918826	0.306666666668
5	14208	62.629442130115	0.305000000001
5	14282	62.786028293663	0.205000000001
5	14372	62.98769496033	0.203333333334
5	14459	63.239908796782	0.305000000001
5	14481	63.241575463449	0.306666666668
5	14753	65.687820045813	0.305000000001
5	14812	65.894386712479	0.406666666668
5	14962	66.103303821895	0.203333333334
5	15108	66.306637155229	0.305000000001
5	15259	66.553239430469	0.306666666668
5	15343	66.708120045815	0.407066666668
6	175	6.07085367338	0.103333333334
6	197	6.075853673381	0.210000000002
6	294	6.303496871202	0.111666666669
6	438	6.701830204535	0.205000000001
6	616	7.559859272836	0.208333333335
6	702	7.766525939504	0.110000000002
6	835	8.060101790066	0.106666666668
6	959	8.423374386471	0.203333333334
6	981	8.468435123401	0.210000000002
6	1046	8.830041053139	0.203333333334
6	1176	8.957801061543	0.111666666669
6	1372	9.241707719808	0.208333333335
6	1448	9.357801061543	0.206666666668
6	1533	9.664363278002	0.111666666669
6	1632	9.861029944668	0.105000000001
6	1763	13.254709501644	0.103333333334
6	1847	13.459709501645	0.206666666668
6	2002	14.452342203945	0.205000000001
6	2047	14.555675537279	0.206666666668
6	2165	15.831397374493	0.101666666667
6	2252	15.963738427498	0.211666666669
6	2269	16.034752930049	0.101688888889
6	2494	16.241419596717	0.105000000001
6	2524	16.262071760831	0.205000000001
6	2761	16.753358448836	0.208333333335
6	2794	16.7754384275	0.208333333335
6	2941	16.960025115504	0.110000000002
6	2995	16.968126759458	0.103333333334
6	3038	16.982105094168	0.110000000002
6	3200	17.176460092793	0.210000000002
6	3322	17.647827628028	0.111666666669
6	3463	18.049494294695	0.208333333335
6	3500	18.515480418423	0.101666666667
6	3545	18.718835973979	0.101666666667
6	3585	18.722169307313	0.105000000001
6	3675	20.830355026626	0.101666666667
6	3697	21.033732804404	0.101711111111
6	3834	21.238732804405	0.103333333334
6	4000	21.570566104181	0.206666666668
6	4088	21.773899437515	0.206666666668
6	4222	22.183721454289	0.210000000002
6	4370	22.38872145429	0.110000000002
6	4416	22.474561864797	0.206666666668
6	4530	22.677895198131	0.206666666668
6	4555	22.826304762491	0.101666666667
6	4567	23.029671429158	0.1017
6	4690	23.236338095826	0.105000000001
6	4947	24.873884754941	0.105000000001
6	4998	24.94524803487	0.206666666668
6	5084	25.04524803487	0.205000000001
6	5124	25.078884754942	0.208333333335
6	5266	25.519006717511	0.103333333334
6	5392	25.727340050846	0.210000000002
6	5486	25.883931791524	0.208333333335
6	5567	26.090598458192	0.110000000002
6	5750	26.577610899998	0.211666666669
6	5828	26.775944233331	0.206666666668
6	5867	27.756265445778	0.203333333334
6	5957	28.163043223556	0.203333333334
6	5999	28.171376556891	0.211666666669
6	6156	28.688333726078	0.105000000001
6	6266	28.993333726079	0.206666666668
6	6373	29.96587669809	0.111666666669
6	6466	30.160876698089	0.103333333334
6	6642	31.251831724962	0.105000000001
6	6763	31.453498391629	0.205000000001
6	6798	31.470253947187	0.111666666669
6	6974	31.871920613854	0.208333333335
6	7147	32.840630886527	0.208333333335
6	7215	33.047297553195	0.110000000002
6	7282	34.295694518801	0.203333333334
6	7303	34.702494518801	0.203466666666
6	7480	35.115827852137	0.210000000002
6	7497	35.179551308243	0.203333333334
6	7554	35.586373530465	0.203488888888
6	7757	35.996373530467	0.206666666668
6	7833	36.115611292125	0.211666666669
6	7919	36.318944625459	0.110000000002
6	8061	37.519939200745	0.105000000001
6	8168	37.808583161893	0.101666666667
6	8182	37.824939200746	0.206666666668
6	8209	38.011994273004	0.101744444444
6	8339	38.223660939673	0.110000000002
6	8483	39.892478605728	0.111666666669
6	8576	40.087478605727	0.103333333334
6	8769	40.75279380523	0.206666666668
6	8802	40.85279380523	0.205000000001
6	8949	41.291154243714	0.205000000001
6	9001	41.394487577048	0.206666666668
6	9173	42.189421191265	0.208333333335
6	9258	42.394421191266	0.210000000002
6	9375	42.628409114961	0.111666666669
6	9394	42.697101836525	0.101666666667
6	9491	42.830075781628	0.110000000002
6	9674	43.181266885357	0.211666666669
6	9756	43.37960021869	0.206666666668
6	9858	44.087517198368	0.105000000001
6	9939	44.295850531703	0.110000000002
6	10151	47.386018130887	0.206666666668
6	10196	47.487684797554	0.105000000001
6	10366	48.272412782391	0.105000000001
6	10527	48.474079449058	0.205000000001
6	10538	48.502029106453	0.101666666667
6	10562	48.523264425623	0.210000000002
6	10659	48.705462439787	0.101666666667
6	10709	48.715462439789	0.111666666669
6	10742	48.721597758956	0.103333333334
6	11003	49.644511385375	0.208333333335
6	11074	49.849511385376	0.210000000002
6	11238	51.805651504124	0.211666666669
6	11324	52.008984837458	0.110000000002
6	11613	52.95806244304	0.206666666668
6	11677	53.010303300947	0.211666666669
6	11798	53.163062443041	0.208333333335
6	11820	53.20863663428	0.206666666668
6	12023	54.070320797242	0.105000000001
6	12055	54.078654130577	0.215000000003
6	12222	54.449903879648	0.205000000001
6	12265	54.551570546315	0.103333333334
6	12383	55.094602370694	0.106666666668
6	12497	55.502935704029	0.210000000002
6	12626	56.888484063815	0.105000000001
6	12714	57.090150730482	0.205000000001
6	12829	57.693126290471	0.111666666669
6	12952	57.894792957138	0.110000000002
6	13141	58.219044002431	0.206666666668
6	13242	58.353916239425	0.101666666667
6	13272	58.393743925361	0.111666666669
6	13301	58.424044002432	0.208333333335
6	13421	58.55736068387	0.101666666667
6	13466	58.562360683871	0.106666666668
6	13509	58.595410592028	0.110000000002
6	13743	60.542126516617	0.111666666669
6	13886	60.942126516617	0.206666666668
6	13986	61.470155918826	0.106666666668
6	14065	61.670155918826	0.103333333334
6	14134	62.174028293662	0.203333333334
6	14175	62.581028293662	0.203666666666
6	14378	62.991028293664	0.206666666668
6	14419	63.041575463449	0.106666666668
6	14539	63.449908796784	0.210000000002
6	14720	65.587820045813	0.205000000001
6	14987	66.106637155229	0.206666666668
6	15038	66.206637155229	0.205000000001
6	15154	66.353239430469	0.106666666668
6	15243	66.523174413878	0.203333333334
6	15276	66.559906097137	0.110000000002
7	184	6.072520340047	0.105000000001
7	193	6.074187006714	0.208333333335
7	385	6.51016353787	0.318333333337
7	418	6.601830204535	0.105000000001
7	617	7.559859272836	0.208333333335
7	728	7.86175292697	0.305000000001
7	799	7.973192606172	0.31666666667
7	857	8.158435123399	0.205000000001
7	992	8.473435123402	0.215000000003
7	1225	9.036707719807	0.206666666668
7	1352	9.164467728211	0.318333333337
7	1365	9.238374386474	0.205000000001
7	1455	9.35946772821	0.208333333335
7	1649	9.87102994467	0.318333333337
7	1662	9.961029944668	0.205000000001
7	1687	13.049709501643	0.101666666667
7	1733	13.253042834977	0.101666666667
7	1779	13.258042834978	0.106666666668
7	1968	14.352342203945	0.105000000001
7	2057	14.557342203946	0.208333333335
7	2234	15.95707176083	0.305254073509
7	2263	15.968738427499	0.21666666667
7	2451	16.162071760831	0.105000000001
7	2496	16.241419596717	0.206666666668
7	2546	16.341419596717	0.205000000001
7	2623	16.567105094165	0.305033333334
7	2762	16.753358448836	0.208333333335
7	3002	16.969793426125	0.105000000001
7	3179	17.166691782172	0.31666666667
7	3220	17.181460092794	0.215000000003
7	3226	17.188771760836	0.31666666667
7	3409	17.854494294696	0.318333333337
7	3456	18.046160961361	0.205000000001
7	3586	18.722169307313	0.105000000001
7	3661	18.925502640647	0.206666666668
7	3691	20.957121659735	0.203333333334
7	3842	21.240399471072	0.105000000001
7	3850	21.242066137739	0.208333333335
7	3886	21.363899437513	0.203444444444
7	4095	21.775566104182	0.208333333335
7	4156	22.064495198129	0.203333333334
7	4211	22.178721454288	0.205000000001
7	4387	22.471228531463	0.203333333334
7	4432	22.477895198131	0.210000000002
7	4516	22.595388120958	0.31666666667
7	4692	23.236338095826	0.206666666668
7	4717	23.336338095826	0.205000000001
7	4740	24.535214701535	0.101666666667
7	4764	24.738581368202	0.1017
7	4996	24.94524803487	0.105000000001
7	5044	24.973884754941	0.205000000001
7	5117	25.075551421608	0.205000000001
7	5273	25.520673384178	0.105000000001
7	5403	25.732340050847	0.215000000003
7	5487	25.883931791524	0.208333333335
7	5630	26.29726512486	0.31666666667
7	5761	26.582610899999	0.21666666667
7	5835	26.777610899998	0.208333333335
7	6010	28.176376556892	0.21666666667
7	6086	28.369709890224	0.206666666668
7	6092	28.379889281633	0.203333333334
7	6174	28.786667059411	0.203333333334
7	6204	28.790000392745	0.206666666668
7	6475	30.162543364756	0.105000000001
7	6488	30.172543364758	0.318333333337
7	6695	31.353498391629	0.105000000001
7	6706	31.355165058296	0.208333333335
7	6902	31.676920613855	0.318333333337
7	6967	31.86858728052	0.205000000001
7	7014	32.022097553192	0.305000000001
7	7026	32.106619067922	0.203333333334
7	7061	32.632297553192	0.305199999999
7	7268	33.253964219863	0.31666666667
7	7405	34.910827852136	0.208333333335
7	7491	35.120827852138	0.215000000003
7	7536	35.382884641577	0.203333333334
7	7635	35.789706863799	0.203333333334
7	7669	35.7947068638	0.208333333335
7	7844	36.120611292126	0.21666666667
7	7972	36.525611292127	0.31666666667
7	8110	37.621605867412	0.206666666668
7	8189	37.826605867413	0.208333333335
7	8324	38.218660939672	0.206666666668
7	8392	38.430327606341	0.31666666667
7	8585	40.089145272394	0.105000000001
7	8598	40.099145272396	0.318333333337
7	8767	40.75279380523	0.105000000001
7	8786	40.756127138564	0.210000000002
7	8834	40.984398688157	0.101666666667
7	8879	41.18782091038	0.101666666667
7	8925	41.192820910381	0.106666666668
7	9033	41.574243413484	0.203333333334
7	9057	41.98108785793	0.203511111112
7	9269	42.399421191267	0.215000000003
7	9505	42.835075781629	0.318333333337
7	9587	43.036742448296	0.31666666667
7	9685	43.186266885358	0.21666666667
7	9763	43.381266885357	0.208333333335
7	9859	44.087517198368	0.105000000001
7	9992	44.502517198371	0.31666666667
7	10045	47.093965705418	0.203333333334
7	10166	47.389351464221	0.210000000002
7	10226	47.587684797554	0.205000000001
7	10452	48.374079449058	0.105000000001
7	10463	48.375746115725	0.208333333335
7	10551	48.518264425622	0.205000000001
7	10750	48.723264425623	0.105000000001
7	10849	48.912129106455	0.206666666668
7	10864	48.922129106457	0.318333333337
7	11004	49.644511385375	0.208333333335
7	11085	49.854511385377	0.215000000003
7	11249	51.810651504125	0.21666666667
7	11385	52.215651504126	0.31666666667
7	11399	52.344595776372	0.203333333334
7	11439	52.751395776372	0.203466666666
7	11688	53.015303300948	0.21666666667
7	11791	53.159729109707	0.205000000001
7	11827	53.210303300947	0.208333333335
7	12014	54.068654130575	0.205000000001
7	12077	54.170320797242	0.205000000001
7	12083	54.173129421393	0.101666666667
7	12183	54.351570546315	0.106666666668
7	12274	54.553237212982	0.105000000001
7	12401	55.192935704027	0.205000000001
7	12508	55.50793570403	0.215000000003
7	12679	56.990150730482	0.105000000001
7	12690	56.991817397149	0.208333333335
7	12795	57.605532891317	0.203333333334
7	12966	57.899792957139	0.318333333337
7	13010	58.012377335763	0.203511111112
7	13058	58.101459623806	0.31666666667
7	13294	58.420710669098	0.205000000001
7	13523	58.600410592029	0.318333333337
7	13553	58.660694017204	0.205000000001
7	13622	58.764027350538	0.206666666668
7	13640	58.802077258696	0.31666666667
7	13672	60.125059849948	0.305000000001
7	13791	60.735459849949	0.305000000001
7	13830	60.748793183285	0.318333333337
7	14025	61.568489252159	0.205000000001
7	14072	61.671822585493	0.105000000001
7	14290	62.789361626997	0.208333333335
7	14385	62.992694960331	0.208333333335
7	14443	63.139908796782	0.205000000001
7	14550	63.454908796785	0.215000000003
7	14693	65.487820045813	0.105000000001
7	14985	66.106637155229	0.105000000001
7	15005	66.109970488563	0.210000000002
7	15119	66.319841080544	0.203333333334
7	15208	66.451572763802	0.205000000001
8	186	6.072520340047	0.206666666668
8	215	6.17085367338	0.203333333334
8	328	6.403496871202	0.211666666669
8	403	6.598496871201	0.101666666667
8	502	7.343435123396	0.305000000001
8	610	7.558192606169	0.206666666668
8	739	7.866525939504	0.210000000002
8	757	7.953435123398	0.305000000001
8	1016	8.568435123401	0.310000000002
8	1143	8.936707719807	0.106666666668
8	1259	9.057801061543	0.211666666669
8	1290	9.138374386474	0.105000000001
8	1434	9.349341055777	0.203333333334
8	1449	9.357801061543	0.206666666668
8	1548	9.756029944667	0.203333333334
8	1593	9.764363278002	0.211666666669
8	1793	13.354709501644	0.203333333334
8	1848	13.459709501645	0.206666666668
8	1929	14.349008870611	0.101666666667
8	2048	14.555675537279	0.206666666668
8	2218	15.93306404116	0.101666666667
8	2347	16.063738427498	0.311666666669
8	2362	16.136419596716	0.101666666667
8	2414	16.141419596717	0.106666666668
8	2430	16.158738427497	0.101666666667
8	2756	16.751691782169	0.206666666668
8	2789	16.773771760833	0.206666666668
8	3072	17.060025115504	0.210000000002
8	3090	17.068126759458	0.203333333334
8	3151	17.082105094168	0.210000000002
8	3245	17.276460092793	0.310000000002
8	3356	17.747827628028	0.211666666669
8	3432	17.946160961361	0.105000000001
8	3632	18.82383597398	0.105000000001
8	3641	18.825502640647	0.208333333335
8	3786	21.138732804405	0.105000000001
8	3868	21.338732804405	0.203333333334
8	4007	21.572232770848	0.208333333335
8	4089	21.773899437515	0.206666666668
8	4185	22.080388120955	0.106666666668
8	4423	22.476228531464	0.208333333335
8	4453	22.48872145429	0.210000000002
8	4531	22.677895198131	0.206666666668
8	4561	22.927971429158	0.101666666667
8	4606	23.131338095825	0.101666666667
8	4654	23.136338095826	0.106666666668
8	4746	24.565518088273	0.101666666667
8	4801	24.76888475494	0.1017
8	4976	24.941914701536	0.101666666667
8	5014	24.948581368204	0.210000000002
8	5053	24.975551421608	0.105000000001
8	5298	25.619006717511	0.203333333334
8	5458	25.827340050846	0.310000000002
8	5481	25.882265124857	0.206666666668
8	5603	26.190598458192	0.210000000002
8	5807	26.677610899998	0.311666666669
8	5829	26.775944233331	0.206666666668
8	6013	28.176555948299	0.203333333334
8	6052	28.268043223557	0.105000000001
8	6061	28.271376556891	0.311666666669
8	6102	28.583333726077	0.203444444444
8	6267	28.993333726079	0.206666666668
8	6433	30.06587669809	0.211666666669
8	6497	30.260876698089	0.203333333334
8	6539	30.943453947183	0.101666666667
8	6561	31.146831724961	0.101711111111
8	6676	31.350165058295	0.101666666667
8	6845	31.570253947187	0.211666666669
8	6935	31.76858728052	0.105000000001
8	7044	32.309952401256	0.203333333334
8	7142	32.83896421986	0.206666666668
8	7245	33.147297553195	0.210000000002
8	7361	34.807494518802	0.105000000001
8	7514	35.215827852137	0.310000000002
8	7618	35.691373530466	0.105000000001
8	7758	35.996373530467	0.206666666668
8	7882	36.215611292125	0.311666666669
8	7949	36.418944625459	0.210000000002
8	7986	37.008072534076	0.203333333334
8	8007	37.414939200744	0.203533333334
8	8183	37.824939200746	0.206666666668
8	8289	38.116994273005	0.105000000001
8	8369	38.323660939673	0.210000000002
8	8543	39.992478605728	0.211666666669
8	8607	40.187478605727	0.203333333334
8	8747	40.749460471896	0.101666666667
8	8785	40.756127138564	0.210000000002
8	8881	41.18782091038	0.101666666667
8	9002	41.394487577048	0.206666666668
8	9167	42.187754524598	0.206666666668
8	9293	42.494421191266	0.310000000002
8	9438	42.728409114961	0.211666666669
8	9531	42.930075781628	0.210000000002
8	9731	43.281266885357	0.311666666669
8	9757	43.37960021869	0.206666666668
8	9898	44.187517198368	0.205000000001
8	9969	44.395850531703	0.210000000002
8	10031	46.975840353107	0.203333333334
8	10121	47.382684797553	0.203333333334
8	10158	47.387684797554	0.208333333335
8	10263	47.964001671279	0.101666666667
8	10285	48.16741278239	0.101744444444
8	10433	48.370746115724	0.101666666667
8	10502	48.419931092289	0.106666666668
8	10783	48.810462439788	0.105000000001
8	10806	48.815462439789	0.211666666669
8	10818	48.821597758956	0.203333333334
8	10997	49.642844718708	0.206666666668
8	11098	49.949511385376	0.310000000002
8	11287	51.905651504124	0.311666666669
8	11354	52.108984837458	0.210000000002
8	11620	52.959729109707	0.208333333335
8	11711	53.059729109707	0.105000000001
8	11774	53.110303300947	0.311666666669
8	11821	53.20863663428	0.206666666668
8	11875	53.761876352796	0.101666666667
8	11926	53.965320797241	0.101666666667
8	11972	53.970320797242	0.106666666668
8	12160	54.346570546314	0.101666666667
8	12188	54.377502370692	0.305000000001
8	12294	54.651570546315	0.203333333334
8	12324	54.987935704026	0.305433333333
8	12521	55.602935704029	0.310000000002
8	12537	56.58005073048	0.101666666667
8	12549	56.783484063814	0.101766666667
8	12660	56.986817397148	0.101666666667
8	12893	57.793126290471	0.211666666669
8	12996	57.994792957138	0.210000000002
8	13148	58.220710669098	0.208333333335
8	13163	58.252249572758	0.101666666667
8	13219	58.320710669098	0.105000000001
8	13312	58.455694017203	0.101777777778
8	13386	58.493743925361	0.211666666669
8	13562	58.662360683871	0.105000000001
8	13599	58.695410592028	0.210000000002
8	13777	60.642126516617	0.211666666669
8	13887	60.942126516617	0.206666666668
8	13901	60.956578141046	0.203333333334
8	13927	61.363489252158	0.203577777778
8	14084	61.770155918826	0.203333333334
8	14144	62.235368030078	0.203333333334
8	14151	62.324442130114	0.305000000001
8	14239	62.686028293663	0.105000000001
8	14337	62.934908796781	0.305466666666
8	14379	62.991028293664	0.206666666668
8	14563	63.549908796784	0.310000000002
8	14672	65.484486712479	0.101666666667
8	14801	65.839594986023	0.203333333334
8	14965	66.103303821895	0.101666666667
8	15004	66.109970488563	0.210000000002
8	15063	66.246572763801	0.203644444444
8	15324	66.659906097137	0.210000000002
9	222	6.174187006714	0.206666666668
9	228	6.179187006715	0.313333333336
9	331	6.406830204536	0.215000000003
9	458	6.805163537869	0.308333333335
9	476	7.0465259395	0.305000000001
9	605	7.556752926969	0.305000000001
9	634	7.656525939502	0.305000000001
9	663	7.66319260617	0.311666666669
9	867	8.1634351234	0.210000000002
9	1019	8.571768456735	0.313333333336
9	1120	8.931707719806	0.101666666667
9	1262	9.061134394877	0.215000000003
9	1428	9.345041053142	0.311666666669
9	1470	9.461134394877	0.310000000002
9	1596	9.767696611336	0.215000000003
9	1668	9.964363278002	0.208333333335
9	1812	13.358042834978	0.206666666668
9	1865	13.563042834979	0.310000000002
9	2049	14.555675537279	0.308333333335
9	2066	14.659008870613	0.310000000002
9	2350	16.067071760832	0.315000000003
9	2364	16.136419596716	0.101666666667
9	2525	16.262071760831	0.305000000001
9	2556	16.344752930051	0.208333333335
9	2568	16.365405094165	0.308333333335
9	2835	16.85669178217	0.311666666669
9	2879	16.872105094166	0.305000000001
9	2904	16.878771760834	0.311666666669
9	2915	16.926127628024	0.305000000001
9	3075	17.063358448838	0.213333333336
9	3107	17.071460092792	0.206666666668
9	3248	17.279793426127	0.313333333336
9	3265	17.536160961359	0.305033333334
9	3481	18.152827628029	0.311666666669
9	3612	18.820502640646	0.101666666667
9	3642	18.825502640647	0.208333333335
9	3746	21.135399471071	0.101666666667
9	3875	21.342066137739	0.206666666668
9	4026	21.668621454287	0.305000000001
9	4060	21.673899437515	0.310000000002
9	4113	21.877232770849	0.310000000002
9	4266	22.278721454288	0.305000000001
9	4299	22.287054787623	0.313333333336
9	4495	22.577895198131	0.310000000002
9	4549	22.781228531465	0.310000000002
9	4608	23.131338095825	0.101666666667
9	4723	23.33967142916	0.208333333335
9	5062	24.977218088275	0.208333333335
9	5094	25.048581368204	0.310000000002
9	5142	25.148581368204	0.308333333335
9	5159	25.182218088276	0.311666666669
9	5314	25.622340050845	0.206666666668
9	5461	25.83067338418	0.313333333336
9	5532	25.987265124858	0.311666666669
9	5606	26.193931791526	0.213333333336
9	5811	26.680944233332	0.315000000003
9	5843	26.879277566665	0.310000000002
9	6030	28.264709890223	0.101666666667
9	6064	28.274709890225	0.315000000003
9	6212	28.791667059412	0.208333333335
9	6281	29.096667059413	0.310000000002
9	6295	29.447410031421	0.203333333334
9	6316	29.854210031421	0.203466666666
9	6504	30.264210031423	0.206666666668
9	6709	31.355165058296	0.208333333335
9	6820	31.556831724963	0.308333333335
9	6848	31.573587280521	0.215000000003
9	7004	31.975253947188	0.311666666669
9	7184	32.943964219861	0.311666666669
9	7248	33.150630886529	0.213333333336
9	7344	34.804161185468	0.101666666667
9	7517	35.219161185471	0.313333333336
9	7587	35.59877795879	0.305000000001
9	7601	35.688040197132	0.101666666667
9	7811	36.099706863801	0.310000000002
9	7850	36.208944625457	0.305000000001
9	7887	36.218944625459	0.315000000003
9	8118	37.623272534079	0.208333333335
9	8203	37.92827253408	0.310000000002
9	8251	38.113660939671	0.101666666667
9	8372	38.326994273007	0.213333333336
9	8546	39.995811939062	0.215000000003
9	8614	40.190811939061	0.206666666668
9	8812	40.856127138564	0.310000000002
9	8828	40.956127138564	0.308333333335
9	9003	41.394487577048	0.308333333335
9	9027	41.497820910382	0.310000000002
9	9213	42.292754524599	0.311666666669
9	9236	42.313275781626	0.203333333334
9	9297	42.4977545246	0.313333333336
9	9345	42.595435169858	0.101666666667
9	9397	42.720075781626	0.203333333334
9	9443	42.731742448295	0.215000000003
9	9735	43.284600218691	0.315000000003
9	9775	43.482933552024	0.310000000002
9	9904	44.190850531702	0.208333333335
9	9972	44.399183865037	0.213333333336
9	10204	47.489351464221	0.310000000002
9	10232	47.591018130888	0.208333333335
9	10466	48.375746115725	0.208333333335
9	10473	48.400362439786	0.101666666667
9	10577	48.577412782392	0.308333333335
9	10583	48.60379577312	0.101766666667
9	10653	48.626597758957	0.313333333336
9	10767	48.807129106454	0.101666666667
9	10830	48.82493109229	0.206666666668
9	11039	49.747844718709	0.311666666669
9	11101	49.95284471871	0.313333333336
9	11292	51.908984837458	0.315000000003
9	11357	52.112318170792	0.213333333336
9	11719	53.061395776374	0.310000000002
9	11778	53.113636634281	0.315000000003
9	11842	53.266395776375	0.311666666669
9	11848	53.311969967614	0.310000000002
9	12086	54.173654130576	0.208333333335
9	12103	54.181987463911	0.318333333337
9	12276	54.553237212982	0.308333333335
9	12301	54.654903879649	0.206666666668
9	12411	55.197935704028	0.210000000002
9	12524	55.606269037363	0.313333333336
9	12693	56.991817397149	0.208333333335
9	12725	57.174526290468	0.203333333334
9	12734	57.193484063816	0.308333333335
9	12762	57.581459623802	0.2036
9	12999	57.998126290472	0.213333333336
9	13043	58.078543925358	0.203333333334
9	13227	58.322377335765	0.310000000002
9	13345	58.485410592026	0.203333333334
9	13391	58.497077258695	0.215000000003
9	13411	58.527377335766	0.311666666669
9	13541	58.659027350537	0.101666666667
9	13574	58.665694017205	0.210000000002
9	13658	59.820059849947	0.305000000001
9	13686	60.430459849948	0.3054
9	13907	61.045459849951	0.310000000002
9	14040	61.57348925216	0.210000000002
9	14091	61.77348925216	0.206666666668
9	14222	62.682694960329	0.101666666667
9	14430	63.094361626998	0.310000000002
9	14453	63.144908796783	0.210000000002
9	14566	63.553242130118	0.313333333336
9	14759	65.691153379147	0.308333333335
9	15049	66.209970488563	0.310000000002
9	15112	66.309970488563	0.308333333335
9	15221	66.456572763803	0.210000000002
9	15327	66.663239430471	0.213333333336

