version 2
run General-42-20190610-18:04:05-2040
attr configname General
attr datetime 20190610-18:04:05
attr experiment General
attr inifile omnetpp.ini
attr iterationvars ""
attr iterationvarsf ""
attr measurement ""
attr network networks.Net5
attr processid 2040
attr repetition 42
attr replication #42
attr resultdir results
attr runnumber 42
attr seedset 42
param **.appType "\"App\""
param **.app.packetLength "1500 bytes"
param **.app.totalNodes 10
param **.destAddresses "\"0\""
param **.sendIaTime "uniform(5s, 10s)"
param **.sendIaTimeEvil 10ms

vector 0 Net5.rte[6].app endToEndDelay:vector ETV
attr interpolationmode none
attr title "end-to-end delay of arrived packets, vector"
attr unit s
vector 1 Net5.rte[7].app endToEndDelay:vector ETV
attr interpolationmode none
attr title "end-to-end delay of arrived packets, vector"
attr unit s
vector 2 Net5.rte[3].app endToEndDelay:vector ETV
attr interpolationmode none
attr title "end-to-end delay of arrived packets, vector"
attr unit s
vector 3 Net5.rte[8].app endToEndDelay:vector ETV
attr interpolationmode none
attr title "end-to-end delay of arrived packets, vector"
attr unit s
vector 4 Net5.rte[5].app endToEndDelay:vector ETV
attr interpolationmode none
attr title "end-to-end delay of arrived packets, vector"
attr unit s
vector 5 Net5.rte[4].app endToEndDelay:vector ETV
attr interpolationmode none
attr title "end-to-end delay of arrived packets, vector"
attr unit s
vector 6 Net5.rte[0].app endToEndDelay:vector ETV
attr interpolationmode none
attr title "end-to-end delay of arrived packets, vector"
attr unit s
vector 7 Net5.rte[9].app endToEndDelay:vector ETV
attr interpolationmode none
attr title "end-to-end delay of arrived packets, vector"
attr unit s
vector 8 Net5.rte[1].app endToEndDelay:vector ETV
attr interpolationmode none
attr title "end-to-end delay of arrived packets, vector"
attr unit s
vector 9 Net5.rte[2].app endToEndDelay:vector ETV
attr interpolationmode none
attr title "end-to-end delay of arrived packets, vector"
attr unit s
0	23	6.08509319259	0.305000000001
0	143	6.695093192592	0.305000000001
0	224	6.742173938365	0.215000000003
0	368	6.937173938364	0.206666666668
0	501	7.310093192595	0.310000000002
0	662	7.94083045423	0.101666666667
0	720	8.002700571554	0.215000000003
0	1001	8.352497120899	0.310000000002
0	1016	8.390939696093	0.101666666667
0	1083	8.406033904888	0.313333333336
0	1164	8.603292431349	0.305000000001
0	1169	8.604959098016	0.214019401923
0	1338	9.066636358321	0.101666666667
0	1481	9.213325764684	0.305000000001
0	1518	9.223325764686	0.315000000003
0	1540	9.274969691656	0.208333333335
0	1928	10.368571557815	0.310000000002
0	1971	10.468571557815	0.308333333335
0	1991	10.51771492101	0.315000000003
0	2096	10.921048254344	0.311666666669
0	2280	11.68385569241	0.308333333335
0	2300	11.787189025744	0.310000000002
0	2522	13.504072550504	0.308333333335
0	2574	13.605739217171	0.206666666668
0	2670	13.808211297469	0.210000000002
0	2776	14.014877964137	0.213333333336
0	2937	14.310323456482	0.208333333335
0	2950	14.318656789817	0.318333333337
0	2998	15.124503636167	0.305000000001
0	3268	15.601933232422	0.310000000002
0	3313	15.701933232422	0.308333333335
0	3352	15.734570302835	0.305000000001
0	3385	15.74290363617	0.313333333336
0	3516	15.924763463058	0.206666666668
0	3636	16.133096796393	0.313333333336
0	3642	16.159846759035	0.101666666667
0	3657	16.363213425702	0.1017
0	3763	16.566546759036	0.101666666667
0	4026	17.219954896439	0.308333333335
0	4050	17.32495489644	0.311666666669
0	4193	18.494510086839	0.206666666668
0	4246	18.69951008684	0.310000000002
0	4432	21.059063119762	0.208333333335
0	4523	21.185027866194	0.101666666667
0	4569	21.267396453097	0.213333333336
0	4705	21.596694532863	0.310000000002
0	4759	22.051586166623	0.305000000001
0	4980	22.661719499957	0.305000000001
0	5013	22.670052833292	0.313333333336
0	5071	22.710530121765	0.215000000003
0	5206	22.905530121764	0.206666666668
0	5424	24.359795555586	0.310000000002
0	5448	24.461462222253	0.208333333335
0	5646	26.246882498112	0.310000000002
0	5660	26.346882498112	0.308333333335
0	5847	27.073301351844	0.310000000002
0	5904	27.278301351845	0.311666666669
0	6073	28.029396263314	0.315000000003
0	6142	28.232729596648	0.213333333336
0	6370	29.126934807796	0.310000000002
0	6415	29.33026814113	0.310000000002
0	6519	29.724108632044	0.215000000003
0	6667	30.127441965378	0.313333333336
0	6859	30.656105557179	0.308333333335
0	6890	30.757772223846	0.206666666668
0	6907	30.927250295778	0.305000000001
0	7093	31.340739184668	0.208333333335
0	7180	31.537416962445	0.305000000001
0	7209	31.542416962446	0.310000000002
0	7266	31.649083629114	0.310000000002
0	7373	32.34149949981	0.305000000001
0	7631	32.951766166479	0.305266666668
0	7665	32.957030328558	0.101666666667
0	7701	32.965363661893	0.313333333336
0	7818	33.10431162153	0.311666666669
0	7964	33.310978288198	0.213333333336
0	8057	33.565099499815	0.308333333335
0	8215	34.070700143419	0.215000000003
0	8297	34.267366810085	0.208333333335
0	8408	34.751752577246	0.215000000003
0	8538	35.15508591058	0.313333333336
0	8801	37.993203110789	0.315000000003
0	8851	38.191536444122	0.310000000002
0	8857	38.257349527042	0.305000000001
0	9004	38.682090227716	0.310000000002
0	9055	38.867582860375	0.305233333332
0	9106	38.890423561051	0.213333333336
0	9327	39.484249527045	0.311666666669
0	9350	39.87812797203	0.305000000001
0	9496	40.457157652193	0.305000000001
0	9502	40.488394638699	0.305000000001
0	9527	40.495061305367	0.311666666669
0	9763	41.218761533593	0.308333333335
0	9864	41.528761533595	0.313333333336
0	9891	41.778534126202	0.203333333334
0	10021	42.103603485966	0.206666666668
0	10030	42.185334126202	0.203466666666
0	10217	42.408603485967	0.308333333335
0	10284	42.597000792871	0.208333333335
0	10329	43.800561059831	0.101666666667
0	10353	44.003961059831	0.101733333333
0	10538	44.207294393165	0.101666666667
0	10605	44.276450818866	0.206666666668
0	10759	44.686450818868	0.311666666669
0	10782	45.005223599861	0.305000000001
0	11005	45.615590266529	0.305000000001
0	11030	45.622256933197	0.311666666669
0	11062	45.664074130245	0.206666666668
0	11198	45.87240746358	0.313333333336
0	11412	46.499034176071	0.206666666668
0	11418	46.504034176072	0.313333333336
0	11597	47.491048777248	0.315000000003
0	11672	47.694382110582	0.213333333336
0	11822	48.040775441687	0.206666666668
0	11875	48.245775441688	0.310000000002
0	12075	50.212365458734	0.208333333335
0	12081	50.217365458735	0.315000000003
0	12118	50.532694889831	0.305000000001
0	12391	51.062807217675	0.101666666667
0	12425	51.072807217677	0.315000000003
0	12437	51.143094889832	0.305000000001
0	12462	51.1497615565	0.311666666669
0	12721	51.902829497358	0.101666666667
0	12797	51.95495810639	0.215000000003
0	12914	52.109496164026	0.206666666668
0	12984	52.353291439723	0.308333333335
0	13165	53.234774370142	0.215000000003
0	13336	53.634774370142	0.310000000002
0	13564	54.404185349427	0.315000000003
0	13602	54.596853038595	0.305000000001
1	29	6.120507271694	0.203333333334
1	67	6.527173938362	0.203333333334
1	347	6.910093192595	0.215000000003
1	371	6.938840605031	0.208333333335
1	464	7.177700571549	0.305000000001
1	504	7.311759859262	0.311666666669
1	549	7.787700571551	0.305000000001
1	663	7.94083045423	0.101666666667
1	865	8.187584140537	0.101666666667
1	1004	8.354163787566	0.311666666669
1	1013	8.390939696093	0.101666666667
1	1044	8.39260636276	0.103333333334
1	1086	8.407700571555	0.315000000003
1	1339	9.066636358321	0.101666666667
1	1522	9.224992431353	0.31666666667
1	1543	9.276636358323	0.210000000002
1	1615	9.42665909802	0.213333333336
1	1932	10.370238224482	0.311666666669
1	1974	10.470238224482	0.310000000002
1	1994	10.519381587677	0.31666666667
1	2099	10.922714921011	0.313333333336
1	2289	11.685522359077	0.310000000002
1	2303	11.788855692411	0.311666666669
1	2434	13.394811297467	0.203333333334
1	2529	13.505739217171	0.310000000002
1	2578	13.607405883838	0.208333333335
1	2632	13.801544630801	0.203333333334
1	2674	13.809877964136	0.211666666669
1	2940	14.311990123149	0.210000000002
1	2953	14.320323456484	0.320000000004
1	3272	15.603599899089	0.311666666669
1	3316	15.703599899089	0.310000000002
1	3389	15.744570302837	0.315000000003
1	3522	15.926430129725	0.208333333335
1	3564	15.947903636171	0.213333333336
1	3639	16.13476346306	0.315000000003
1	3764	16.566546759036	0.101666666667
1	3805	16.578213425705	0.215000000003
1	4032	17.221621563106	0.310000000002
1	4053	17.326621563107	0.313333333336
1	4204	18.496176753506	0.208333333335
1	4249	18.701176753507	0.311666666669
1	4286	20.647307564205	0.203333333334
1	4400	21.054063119761	0.203333333334
1	4436	21.060729786429	0.210000000002
1	4524	21.185027866194	0.101666666667
1	4708	21.59836119953	0.311666666669
1	4765	22.088752343984	0.203333333334
1	4879	22.495530121762	0.203444444444
1	5017	22.671719499959	0.315000000003
1	5185	22.875052833293	0.213333333336
1	5209	22.907196788431	0.208333333335
1	5431	24.361462222253	0.311666666669
1	5451	24.46312888892	0.210000000002
1	5650	26.248549164779	0.311666666669
1	5663	26.348549164779	0.310000000002
1	5854	27.074968018511	0.311666666669
1	5907	27.279968018512	0.313333333336
1	5917	27.409196263312	0.305000000001
1	6036	28.019396263312	0.305000000001
1	6077	28.031062929981	0.31666666667
1	6237	28.898941965374	0.305000000001
1	6378	29.128601474463	0.311666666669
1	6418	29.331934807797	0.311666666669
1	6425	29.509108632041	0.305166666666
1	6670	30.129108632045	0.315000000003
1	6866	30.657772223846	0.310000000002
1	6893	30.759438890513	0.208333333335
1	7108	31.342405851335	0.210000000002
1	7215	31.544083629113	0.311666666669
1	7273	31.650750295781	0.311666666669
1	7299	31.750750295781	0.213333333336
1	7397	32.487378288193	0.305000000001
1	7666	32.957030328558	0.101666666667
1	7705	32.96703032856	0.315000000003
1	7793	33.097644954862	0.305000000001
1	7822	33.105978288197	0.313333333336
1	7851	33.166766166482	0.215000000003
1	8026	33.448922365638	0.203333333334
1	8060	33.566766166482	0.310000000002
1	8085	33.855700143416	0.203444444444
1	8118	33.926552577243	0.305000000001
1	8300	34.269033476752	0.210000000002
1	8314	34.536752577243	0.305199999999
1	8541	35.156752577247	0.315000000003
1	8804	37.994869777456	0.31666666667
1	8811	38.066723561047	0.305000000001
1	8854	38.193203110789	0.311666666669
1	8979	38.677090227715	0.305000000001
1	9008	38.683756894383	0.311666666669
1	9193	39.082582860378	0.215000000003
1	9330	39.485916193712	0.313333333336
1	9531	40.496727972034	0.313333333336
1	9609	40.701727972035	0.213333333336
1	9767	41.22042820026	0.310000000002
1	9867	41.530428200262	0.315000000003
1	10026	42.105270152633	0.208333333335
1	10203	42.400334126205	0.215000000003
1	10220	42.410270152634	0.310000000002
1	10287	42.598667459538	0.210000000002
1	10539	44.207294393165	0.101666666667
1	10580	44.218961059834	0.215000000003
1	10608	44.278117485533	0.208333333335
1	10762	44.688117485535	0.313333333336
1	11034	45.623923599864	0.313333333336
1	11068	45.665740796912	0.208333333335
1	11177	45.828923599865	0.213333333336
1	11201	45.874074130247	0.315000000003
1	11415	46.500700842738	0.208333333335
1	11421	46.505700842739	0.315000000003
1	11441	46.870648777245	0.305000000001
1	11560	47.481048777246	0.305000000001
1	11601	47.492715443915	0.31666666667
1	11833	48.042442108354	0.208333333335
1	11878	48.247442108355	0.311666666669
1	12078	50.214032125401	0.210000000002
1	12084	50.219032125402	0.31666666667
1	12392	51.062807217675	0.101666666667
1	12428	51.074473884344	0.31666666667
1	12431	51.129524773053	0.305000000001
1	12466	51.151428223167	0.313333333336
1	12552	51.356428223168	0.213333333336
1	12608	51.739958106387	0.305433333333
1	12722	51.902829497358	0.101666666667
1	12917	52.111162830693	0.208333333335
1	12987	52.35495810639	0.310000000002
1	12990	52.409474370137	0.305000000001
1	13042	53.019774370139	0.305300000001
1	13339	53.636441036809	0.311666666669
1	13567	54.405852016094	0.31666666667
2	47	6.323840605028	0.203333333334
2	176	6.730507271696	0.203333333334
2	218	6.737173938364	0.210000000002
2	341	6.905093192594	0.210000000002
2	440	7.103426525927	0.103333333334
2	678	7.944163787564	0.105000000001
2	714	7.997700571553	0.210000000002
2	841	8.145830454231	0.103333333334
2	882	8.197700571553	0.105000000001
2	1045	8.39260636276	0.103333333334
2	1158	8.599273029428	0.208333333335
2	1303	9.014992431351	0.106666666668
2	1367	9.068303024988	0.103333333334
2	1533	9.271636358322	0.205000000001
2	1609	9.421659098019	0.208333333335
2	1752	10.161904891147	0.103333333334
2	1884	10.309381587675	0.106666666668
2	1917	10.365238224481	0.205000000001
2	2093	10.916048254343	0.306666666668
2	2228	11.580522359076	0.103333333334
2	2265	11.588855692411	0.213333333336
2	2314	12.612888336515	0.101666666667
2	2341	12.992383661613	0.203333333334
2	2440	13.399072550503	0.203333333334
2	2476	13.402405883837	0.206666666668
2	2664	13.804877964135	0.206666666668
2	2768	14.009877964136	0.208333333335
2	2930	14.306990123148	0.205000000001
2	2947	14.315323456483	0.315000000003
2	3083	15.395266565754	0.103333333334
2	3207	15.514730129723	0.101666666667
2	3257	15.598599899088	0.205000000001
2	3319	15.71809679639	0.1017
2	3379	15.737903636169	0.308333333335
2	3515	15.924763463058	0.105000000001
2	3558	15.94290363617	0.208333333335
2	3771	16.568213425703	0.103333333334
2	3801	16.574880092371	0.211666666669
2	3976	17.116621563105	0.205000000001
2	4047	17.319954896439	0.306666666668
2	4063	18.084487864615	0.101666666667
2	4075	18.287843420171	0.101688888889
2	4183	18.492843420172	0.103333333334
2	4260	20.443974230871	0.203333333334
2	4316	20.850729786427	0.203422222222
2	4539	21.188361199528	0.105000000001
2	4563	21.262396453096	0.208333333335
2	4650	21.390027866195	0.103333333334
2	4791	22.292085677318	0.203333333334
2	5007	22.665052833291	0.308333333335
2	5023	22.698863455096	0.203333333334
2	5065	22.705530121764	0.210000000002
2	5179	22.870052833292	0.208333333335
2	5307	24.153128888918	0.103333333334
2	5441	24.458128888919	0.205000000001
2	5538	26.040215831444	0.103333333334
2	5635	26.243549164778	0.205000000001
2	5734	26.866634685176	0.103333333334
2	5901	27.273301351844	0.306666666668
2	5976	27.821062929979	0.106666666668
2	6136	28.227729596647	0.208333333335
2	6254	28.920268141128	0.103333333334
2	6352	29.123601474462	0.103333333334
2	6513	29.719108632043	0.210000000002
2	6591	29.919108632043	0.105000000001
2	6673	30.144305557178	0.203333333334
2	6771	30.551105557178	0.203333333334
2	6807	30.554438890512	0.206666666668
2	7058	31.337405851334	0.205000000001
2	7130	31.437416962445	0.205000000001
2	7152	31.442416962446	0.103333333334
2	7293	31.74575029578	0.208333333335
2	7610	32.897644954862	0.105000000001
2	7674	32.958696995225	0.103333333334
2	7700	32.965363661893	0.313333333336
2	7845	33.161766166481	0.210000000002
2	7958	33.305978288197	0.208333333335
2	8038	33.461766166481	0.205000000001
2	8208	34.065700143418	0.210000000002
2	8290	34.264033476751	0.205000000001
2	8402	34.746752577245	0.210000000002
2	8472	34.946752577245	0.105000000001
2	8652	37.784869777454	0.106666666668
2	8769	37.984869777454	0.103333333334
2	8959	38.577090227715	0.205000000001
2	9100	38.88542356105	0.208333333335
2	9187	39.077582860377	0.210000000002
2	9324	39.479249527044	0.306666666668
2	9434	40.288394638699	0.105000000001
2	9603	40.696727972034	0.208333333335
2	9728	41.117094866926	0.206666666668
2	9788	41.32042820026	0.105000000001
2	9848	41.490025708186	0.203333333334
2	9905	41.896936819298	0.203577777778
2	10143	42.305270152633	0.205000000001
2	10196	42.395334126204	0.210000000002
2	10277	42.593667459537	0.205000000001
2	10305	43.459517485529	0.305000000001
2	10386	44.069784152198	0.305266666668
2	10546	44.208961059832	0.103333333334
2	10576	44.2156277265	0.211666666669
2	10756	44.681450818867	0.306666666668
2	10800	45.253974130243	0.101666666667
2	10862	45.415590266529	0.105000000001
2	10883	45.457407463577	0.101766666667
2	11061	45.664074130245	0.105000000001
2	11171	45.823923599864	0.208333333335
2	11232	46.088923064958	0.101666666667
2	11277	46.292367509403	0.101666666667
2	11315	46.295700842737	0.105000000001
2	11500	47.282715443913	0.106666666668
2	11648	47.630675441685	0.101666666667
2	11666	47.689382110581	0.208333333335
2	11704	47.834108775019	0.101766666667
2	11812	48.03910877502	0.103333333334
2	12020	50.107365458733	0.205000000001
2	12068	50.2090321254	0.205000000001
2	12224	50.864473884342	0.106666666668
2	12272	50.943094889832	0.105000000001
2	12401	51.064473884342	0.103333333334
2	12546	51.351428223167	0.208333333335
2	12602	51.699362830691	0.101666666667
2	12719	51.902829497358	0.101666666667
2	12760	51.906162830692	0.105000000001
2	12791	51.949958106389	0.210000000002
2	12965	52.249958106389	0.205000000001
2	13159	53.229774370141	0.210000000002
2	13260	53.428107703474	0.103333333334
2	13461	54.195852016092	0.106666666668
3	53	6.390093192591	0.305000000001
3	302	6.835507271697	0.105000000001
3	315	6.845507271699	0.318333333337
3	378	7.000093192593	0.305000000001
3	417	7.013426525929	0.318333333337
3	767	8.047497120898	0.208333333335
3	824	8.106033904888	0.318333333337
3	925	8.250830454232	0.208333333335
3	995	8.307700571555	0.215000000003
3	1109	8.495939696094	0.206666666668
3	1198	8.707606362763	0.31666666667
3	1423	9.124992431353	0.21666666667
3	1459	9.171636358322	0.206666666668
3	1534	9.271636358322	0.205000000001
3	1639	9.529992431354	0.31666666667
3	1848	10.265238224481	0.105000000001
3	1867	10.268571557815	0.210000000002
3	1962	10.419381587677	0.21666666667
3	2071	10.814381587676	0.205000000001
3	2115	11.273844581297	0.101666666667
3	2160	11.477189025742	0.101666666667
3	2206	11.482189025743	0.106666666668
3	2429	13.302405883837	0.106666666668
3	2520	13.504072550504	0.105000000001
3	2657	13.803211297468	0.205000000001
3	2859	14.118211297471	0.31666666667
3	2882	14.205323456481	0.205000000001
3	2931	14.306990123148	0.205000000001
3	3183	15.498599899088	0.105000000001
3	3202	15.501933232422	0.210000000002
3	3288	15.634570302835	0.205000000001
3	3441	15.823096796391	0.105000000001
3	3601	16.03476346306	0.215000000003
3	3616	16.051236969505	0.31666666667
3	3829	16.671546759037	0.206666666668
3	3844	16.681546759039	0.318333333337
3	3943	17.016621563105	0.105000000001
3	4019	17.218288229772	0.205000000001
3	4069	18.186154531282	0.101666666667
3	4114	18.389510086838	0.101666666667
3	4160	18.394510086839	0.106666666668
3	4383	20.955729786428	0.105000000001
3	4616	21.291694532862	0.208333333335
3	4634	21.370729786431	0.31666666667
3	4693	21.495027866196	0.208333333335
3	4919	22.561719499957	0.205000000001
3	5148	22.803863455097	0.105000000001
3	5161	22.813863455099	0.318333333337
3	5221	22.978386166627	0.31666666667
3	5238	23.64306222225	0.203333333334
3	5259	24.049795555584	0.2034
3	5442	24.458128888919	0.205000000001
3	5461	25.733493609221	0.101666666667
3	5473	25.93688249811	0.101722222222
3	5601	26.143549164778	0.105000000001
3	5666	26.356523574064	0.203333333334
3	5686	26.763301351842	0.203444444444
3	5875	27.171634685177	0.205000000001
3	6030	27.931062929981	0.21666666667
3	6166	28.336062929982	0.31666666667
3	6172	28.410179252238	0.203333333334
3	6204	28.816934807794	0.203422222222
3	6403	29.228601474463	0.208333333335
3	6572	29.827441965378	0.318333333337
3	6647	30.029108632045	0.215000000003
3	6758	30.454438890512	0.106666666668
3	6857	30.656105557179	0.105000000001
3	6912	30.928916962445	0.203333333334
3	7065	31.337416962445	0.105000000001
3	7072	31.339083629112	0.206677777779
3	7104	31.340750295779	0.208344444446
3	7319	31.854083629115	0.31666666667
3	7566	32.857030328558	0.205000000001
3	7725	33.000978288196	0.208333333335
3	7768	33.062030328559	0.206666666668
3	7940	33.270099499816	0.318333333337
3	8002	33.361766166481	0.105000000001
3	8020	33.414311621532	0.31666666667
3	8272	34.174033476753	0.318333333337
3	8291	34.264033476751	0.205000000001
3	8457	34.85508591058	0.318333333337
3	8522	35.056752577247	0.215000000003
3	8740	37.894869777456	0.21666666667
3	8835	38.089869777455	0.208333333335
3	8933	38.477090227715	0.105000000001
3	9165	38.993756894385	0.31666666667
3	9243	39.185916193712	0.318333333337
3	9298	39.377582860377	0.205000000001
3	9481	40.391727972033	0.208333333335
3	9624	40.762157652194	0.305000000001
3	9636	40.805061305369	0.31666666667
3	9710	41.017094866926	0.106666666668
3	9842	41.430428200262	0.215000000003
3	9975	42.003603485966	0.106666666668
3	10089	42.205270152633	0.105000000001
3	10265	42.503667459539	0.318333333337
3	10278	42.593667459537	0.205000000001
3	10519	44.176450818866	0.106666666668
3	10624	44.312294393166	0.206666666668
3	10639	44.322294393168	0.318333333337
3	10730	44.5797841522	0.205000000001
3	10765	44.70022359986	0.305000000001
3	10806	45.310590266528	0.305366666667
3	10989	45.562407463578	0.105000000001
3	11153	45.774074130247	0.215000000003
3	11217	45.932256933199	0.31666666667
3	11374	46.397367509404	0.105000000001
3	11383	46.399034176071	0.208333333335
3	11554	47.392715443915	0.21666666667
3	11683	47.732342108352	0.101666666667
3	11698	47.797715443916	0.31666666667
3	11743	47.935775441686	0.101666666667
3	11789	47.940775441687	0.106666666668
3	11980	50.007365458733	0.105000000001
3	12069	50.2090321254	0.205000000001
3	12087	50.22769488983	0.305000000001
3	12179	50.838094889831	0.3054
3	12346	50.974473884344	0.21666666667
3	12485	51.167807217676	0.206666666668
3	12578	51.459761556502	0.31666666667
3	12840	52.007829497359	0.105000000001
3	12848	52.009496164026	0.208333333335
3	12894	52.058291439724	0.318333333337
3	12943	52.149958106389	0.105000000001
3	13231	53.338107703476	0.318333333337
3	13314	53.533107703475	0.208333333335
3	13530	54.305852016094	0.21666666667
4	128	6.638840605031	0.111666666669
4	259	6.806759859261	0.111666666669
4	293	6.83384060503	0.103333333334
4	478	7.206759859261	0.206666666668
4	515	7.432497120895	0.203333333334
4	582	7.839163787563	0.203333333334
4	639	7.89936723822	0.111666666669
4	776	8.08591747387	0.101666666667
4	918	8.249163787565	0.206666666668
4	933	8.289273029426	0.101688888889
4	984	8.302700571554	0.210000000002
4	1127	8.500939696095	0.110000000002
4	1204	8.76163635832	0.101666666667
4	1254	8.964969691654	0.101666666667
4	1412	9.119992431352	0.211666666669
4	1457	9.171636358322	0.105000000001
4	1573	9.323325764686	0.110000000002
4	1850	10.265238224481	0.206666666668
4	1918	10.365238224481	0.205000000001
4	1951	10.414381587676	0.211666666669
4	2078	10.81771492101	0.208333333335
4	2230	11.580522359076	0.205000000001
4	2278	11.68385569241	0.206666666668
4	2468	13.40073921717	0.205000000001
4	2511	13.502405883837	0.103333333334
4	2615	13.704877964135	0.106666666668
4	2710	13.911544630803	0.110000000002
4	2891	14.206990123148	0.105000000001
4	2913	14.215323456483	0.215000000003
4	3185	15.498599899088	0.206666666668
4	3258	15.598599899088	0.205000000001
4	3299	15.639570302836	0.210000000002
4	3434	15.821430129724	0.103333333334
4	3480	15.844570302837	0.110000000002
4	3590	16.029763463059	0.210000000002
4	3651	16.261513425702	0.101666666667
4	3690	16.464880092369	0.101666666667
4	3740	16.474880092371	0.111666666669
4	3977	17.116621563105	0.205000000001
4	4031	17.221621563106	0.208333333335
4	4144	18.391176753505	0.103333333334
4	4228	18.596176753506	0.206666666668
4	4292	20.676627866193	0.203333333334
4	4298	20.678593817134	0.203333333334
4	4382	20.955729786428	0.105000000001
4	4444	21.083361199527	0.2034
4	4500	21.164063119763	0.110000000002
4	4686	21.493361199529	0.206666666668
4	4930	22.566719499958	0.210000000002
4	4965	22.607196788431	0.111666666669
4	5105	22.771719499959	0.110000000002
4	5139	22.80219678843	0.103333333334
4	5372	24.256462222252	0.206666666668
4	5393	24.311496708974	0.101666666667
4	5416	24.358128888919	0.105000000001
4	5603	26.143549164778	0.206666666668
4	5636	26.243549164778	0.205000000001
4	5796	26.96996801851	0.206666666668
4	5882	27.174968018511	0.208333333335
4	6019	27.92606292998	0.211666666669
4	6105	28.129396263314	0.110000000002
4	6316	29.023601474462	0.206666666668
4	6396	29.226934807796	0.206666666668
4	6482	29.62077529871	0.111666666669
4	6636	30.024108632044	0.210000000002
4	6799	30.552772223845	0.205000000001
4	6848	30.654438890512	0.103333333334
4	7010	31.237405851334	0.105000000001
4	7133	31.439083629112	0.206666666668
4	7221	31.54575029578	0.206666666668
4	7260	31.647416962447	0.110000000002
4	7391	32.448585884113	0.203333333334
4	7538	32.855363661891	0.203333333334
4	7580	32.862030328559	0.210000000002
4	7724	33.000978288196	0.208333333335
4	7772	33.063432833148	0.111666666669
4	7882	33.207644954864	0.110000000002
4	8039	33.461766166481	0.205000000001
4	8148	33.967366810085	0.111666666669
4	8255	34.164033476751	0.105000000001
4	8371	34.648419243912	0.111666666669
4	8511	35.051752577246	0.210000000002
4	8729	37.889869777455	0.211666666669
4	8746	37.925636464197	0.203333333334
4	8828	38.088203110788	0.206666666668
4	8962	38.578756894382	0.206666666668
4	9040	38.787090227717	0.110000000002
4	9141	38.979249527044	0.111666666669
4	9305	39.380916193711	0.208333333335
4	9480	40.391727972033	0.208333333335
4	9566	40.598394638701	0.110000000002
4	9722	41.115428200259	0.205000000001
4	9831	41.425428200261	0.210000000002
4	9961	42.000270152632	0.103333333334
4	10122	42.297000792871	0.111666666669
4	10144	42.305270152633	0.205000000001
4	10248	42.493667459537	0.105000000001
4	10339	43.902227726498	0.101666666667
4	10423	44.105627726498	0.101666666667
4	10473	44.1156277265	0.111666666669
4	10505	44.173117485532	0.103333333334
4	10737	44.583117485534	0.208333333335
4	10931	45.518923599863	0.208333333335
4	10982	45.560740796911	0.103333333334
4	11112	45.725590266531	0.110000000002
4	11142	45.769074130246	0.210000000002
4	11365	46.395700842737	0.103333333334
4	11387	46.400700842738	0.210000000002
4	11543	47.387715443914	0.211666666669
4	11633	47.591048777248	0.110000000002
4	11773	47.937442108353	0.103333333334
4	11857	48.142442108354	0.206666666668
4	12027	50.1090321254	0.105000000001
4	12040	50.114032125401	0.211666666669
4	12124	50.554318328786	0.203333333334
4	12293	50.961140551008	0.203333333334
4	12335	50.969473884343	0.211666666669
4	12371	51.046428223166	0.208333333335
4	12515	51.253094889834	0.110000000002
4	12592	51.597696164024	0.101666666667
4	12641	51.801162830691	0.1018
4	12698	51.851624773056	0.111666666669
4	12832	52.006162830692	0.103333333334
4	12966	52.249958106389	0.205000000001
4	13114	53.131441036808	0.111666666669
4	13307	53.531441036808	0.206666666668
4	13519	54.300852016093	0.211666666669
5	221	6.738840605031	0.211666666669
5	344	6.906759859261	0.211666666669
5	361	6.93384060503	0.203333333334
5	479	7.206759859261	0.206666666668
5	679	7.944163787564	0.105000000001
5	717	7.99936723822	0.211666666669
5	919	8.249163787565	0.206666666668
5	1054	8.394273029427	0.105000000001
5	1078	8.402700571554	0.310000000002
5	1161	8.600939696095	0.210000000002
5	1214	8.863303024987	0.101666666667
5	1336	9.066636358321	0.101666666667
5	1384	9.071636358322	0.106666666668
5	1513	9.219992431352	0.311666666669
5	1612	9.423325764686	0.210000000002
5	1828	10.261904891147	0.101666666667
5	1866	10.268571557815	0.210000000002
5	1988	10.514381587676	0.311666666669
5	2047	10.714381587676	0.105000000001
5	2162	11.477189025742	0.101666666667
5	2279	11.68385569241	0.206666666668
5	2355	13.191477964133	0.203333333334
5	2406	13.297405883836	0.101666666667
5	2533	13.598211297467	0.2034
5	2564	13.602405883837	0.203333333334
5	2681	13.898634567591	0.101666666667
5	2772	14.011544630803	0.210000000002
5	2789	14.101990123147	0.101666666667
5	2835	14.106990123148	0.106666666668
5	3163	15.495266565754	0.101666666667
5	3201	15.501933232422	0.210000000002
5	3236	15.536236969502	0.106666666668
5	3500	15.921430129724	0.203333333334
5	3561	15.944570302837	0.210000000002
5	3633	16.129763463059	0.310000000002
5	3779	16.56988009237	0.105000000001
5	3802	16.574880092371	0.211666666669
5	3903	17.013288229771	0.101666666667
5	3986	17.118288229772	0.105000000001
5	4174	18.491176753505	0.203333333334
5	4229	18.596176753506	0.206666666668
5	4426	21.055729786428	0.205000000001
5	4540	21.188361199528	0.105000000001
5	4566	21.264063119763	0.210000000002
5	4687	21.493361199529	0.206666666668
5	4864	22.463386166624	0.106666666668
5	5068	22.707196788431	0.211666666669
5	5182	22.871719499959	0.210000000002
5	5199	22.90219678843	0.203333333334
5	5248	23.846395555584	0.203333333334
5	5334	24.209830042307	0.101666666667
5	5342	24.253128888918	0.203333333334
5	5379	24.258128888919	0.208333333335
5	5581	26.140215831444	0.101666666667
5	5619	26.146882498112	0.210000000002
5	5803	26.971634685177	0.208333333335
5	5839	27.071634685177	0.105000000001
5	6068	28.02606292998	0.311666666669
5	6139	28.229396263314	0.210000000002
5	6323	29.025268141129	0.208333333335
5	6397	29.226934807796	0.206666666668
5	6516	29.72077529871	0.211666666669
5	6664	30.124108632044	0.310000000002
5	6735	30.449438890511	0.101666666667
5	6874	30.725583629111	0.204930366609
5	6883	30.754438890512	0.203333333334
5	6930	31.132405851333	0.203488888888
5	7053	31.335750295778	0.103333333334
5	7222	31.54575029578	0.206666666668
5	7296	31.747416962447	0.210000000002
5	7486	32.758696995225	0.106666666668
5	7683	32.960363661892	0.105000000001
5	7719	32.999311621529	0.206666666668
5	7848	33.163432833148	0.211666666669
5	7961	33.307644954864	0.210000000002
5	7987	33.358432833147	0.101666666667
5	8067	33.652255698972	0.203333333334
5	8167	34.05903347675	0.203333333334
5	8212	34.067366810085	0.211666666669
5	8405	34.748419243912	0.211666666669
5	8535	35.151752577246	0.310000000002
5	8797	37.989869777455	0.311666666669
5	8829	38.088203110788	0.206666666668
5	8925	38.475423561048	0.103333333334
5	9103	38.887090227717	0.210000000002
5	9190	39.079249527044	0.211666666669
5	9270	39.277582860377	0.105000000001
5	9475	40.390061305366	0.206666666668
5	9606	40.698394638701	0.210000000002
5	9687	41.012094866925	0.101666666667
5	9861	41.525428200261	0.310000000002
5	9938	41.981867459536	0.203333333334
5	9987	42.100270152632	0.203333333334
5	10070	42.201936819299	0.101666666667
5	10155	42.388667459536	0.203333333334
5	10200	42.397000792871	0.211666666669
5	10554	44.210627726499	0.105000000001
5	10577	44.2156277265	0.211666666669
5	10594	44.273117485532	0.203333333334
5	10702	44.4797841522	0.105000000001
5	10926	45.517256933196	0.206666666668
5	11046	45.660740796911	0.203333333334
5	11174	45.825590266531	0.210000000002
5	11195	45.869074130246	0.310000000002
5	11376	46.397367509404	0.206666666668
5	11405	46.495700842737	0.203333333334
5	11592	47.487715443914	0.311666666669
5	11669	47.691048777248	0.210000000002
5	11803	48.037442108353	0.203333333334
5	11858	48.142442108354	0.206666666668
5	11891	49.800621014288	0.101666666667
5	11940	50.004032125399	0.101666666667
5	11970	50.005698792066	0.103333333334
5	12366	51.044761556499	0.206666666668
5	12413	51.066140551009	0.105000000001
5	12422	51.069473884343	0.311666666669
5	12549	51.353094889834	0.210000000002
5	12761	51.906162830692	0.105000000001
5	12794	51.951624773056	0.211666666669
5	12907	52.106162830692	0.203333333334
5	12928	52.146624773055	0.101666666667
5	13162	53.231441036808	0.211666666669
5	13308	53.531441036808	0.206666666668
5	13561	54.400852016093	0.311666666669
5	13609	54.600452016087	0.101666666667
5	13658	54.803885349421	0.101766666667
6	280	6.832173938363	0.101666666667
6	294	6.83384060503	0.306666666668
6	401	7.00175985926	0.306666666668
6	472	7.203426525927	0.203333333334
6	521	7.48270057155	0.305000000001
6	759	8.044163787564	0.205000000001
6	782	8.092700571552	0.305000000001
6	804	8.094367238219	0.306666666668
6	912	8.245830454231	0.203333333334
6	973	8.298292431348	0.305000000001
6	1093	8.49260636276	0.203333333334
6	1185	8.695939696094	0.305000000001
6	1221	8.908325764683	0.305033333334
6	1435	9.168303024988	0.203333333334
6	1588	9.371636358322	0.305000000001
6	1591	9.389381587671	0.406666666668
6	1630	9.518325764685	0.305000000001
6	1784	10.202714921007	0.406666666668
6	1825	10.261904891147	0.203333333334
6	1968	10.465238224481	0.305000000001
6	2102	11.016048254343	0.406666666668
6	2270	11.680522359076	0.203333333334
6	2297	11.688855692411	0.313333333336
6	2498	13.50073921717	0.101666666667
6	2512	13.502405883837	0.306666666668
6	2694	13.904877964135	0.306666666668
6	2829	14.106544630802	0.305000000001
6	2956	14.406990123148	0.305000000001
6	2959	14.415323456483	0.415000000003
6	3160	15.495266565754	0.203333333334
6	3275	15.61639679639	0.101666666667
6	3310	15.698599899088	0.305000000001
6	3401	15.819763463057	0.101666666667
6	3432	15.821430129724	0.103333333334
6	3464	15.837903636169	0.408333333335
6	3607	16.039570302836	0.305000000001
6	3822	16.668213425703	0.203333333334
6	3840	16.674880092371	0.311666666669
6	4011	17.216621563105	0.305000000001
6	4056	17.419954896439	0.406666666668
6	4115	18.389510086838	0.101666666667
6	4222	18.592843420172	0.203333333334
6	4365	20.952396453094	0.101666666667
6	4608	21.288361199528	0.205000000001
6	4625	21.359063119762	0.305000000001
6	4680	21.490027866195	0.203333333334
6	4838	22.431524141557	0.406666666668
6	5089	22.765052833291	0.408333333335
6	5126	22.800530121763	0.101666666667
6	5140	22.80219678843	0.306666666668
6	5212	22.966719499958	0.305000000001
6	5343	24.253128888918	0.203333333334
6	5454	24.558128888919	0.305000000001
6	5578	26.140215831444	0.203333333334
6	5657	26.343549164778	0.305000000001
6	5768	26.966634685176	0.203333333334
6	5862	27.104196263311	0.305000000001
6	5914	27.373301351844	0.406666666668
6	5931	27.714396263311	0.305199999999
6	6157	28.324396263313	0.305000000001
6	6288	29.020268141128	0.203333333334
6	6382	29.203941965375	0.305000000001
6	6390	29.223601474462	0.203333333334
6	6534	29.814108632042	0.305000000001
6	6556	29.815775298709	0.306666666668
6	6835	30.652772223845	0.101666666667
6	6849	30.654438890512	0.306666666668
6	7125	31.437405851334	0.305000000001
6	7181	31.537416962445	0.305000000001
6	7210	31.542416962446	0.203333333334
6	7310	31.842416962446	0.305000000001
6	7716	32.997644954862	0.205000000001
6	7753	33.058696995225	0.203333333334
6	7781	33.065363661893	0.413333333336
6	7926	33.258432833147	0.306666666668
6	8011	33.402644954863	0.305000000001
6	8054	33.561766166481	0.305000000001
6	8246	34.162366810084	0.306666666668
6	8278	34.231552577244	0.305000000001
6	8307	34.364033476751	0.305000000001
6	8419	34.841752577244	0.305000000001
6	8441	34.843419243911	0.306666666668
6	8555	37.271403110786	0.203333333334
6	8595	37.678203110786	0.203466666666
6	8819	38.084869777454	0.203333333334
6	8980	38.677090227715	0.305000000001
6	9147	38.982090227716	0.305000000001
6	9227	39.174249527043	0.306666666668
6	9339	39.579249527044	0.406666666668
6	9472	40.388394638699	0.205000000001
6	9581	40.60516153359	0.305000000001
6	9627	40.7933946387	0.305000000001
6	9737	41.215428200259	0.305000000001
6	9759	41.217094866926	0.306666666668
6	9951	41.998603485965	0.101666666667
6	10213	42.405270152633	0.305000000001
6	10239	42.49200079287	0.306666666668
6	10290	42.693667459537	0.305000000001
6	10495	44.171450818865	0.101666666667
6	10617	44.308961059832	0.203333333334
6	10635	44.3156277265	0.311666666669
6	10771	44.781450818867	0.406666666668
6	10839	45.35564079691	0.101666666667
6	10923	45.515590266529	0.205000000001
6	10949	45.559074130244	0.101666666667
6	10980	45.560740796911	0.103333333334
6	11208	45.92059026653	0.305000000001
6	11352	46.39403417607	0.101666666667
6	11366	46.395700842737	0.205000000001
6	11424	46.565648777244	0.305000000001
6	11455	47.176048777245	0.3054
6	11689	47.786048777247	0.305000000001
6	11744	47.935775441686	0.101666666667
6	11851	48.13910877502	0.203333333334
6	12061	50.207365458733	0.305000000001
6	12097	50.3090321254	0.305000000001
6	12104	50.350984995452	0.203333333334
6	12142	50.757807217674	0.203488888888
6	12363	51.043094889832	0.205000000001
6	12475	51.164473884342	0.203333333334
6	12569	51.448094889833	0.305000000001
6	12817	52.004496164025	0.101666666667
6	12833	52.006162830692	0.205000000001
6	12880	52.046624773055	0.306666666668
6	12981	52.349958106389	0.305000000001
6	13180	53.275452016088	0.406666666668
6	13214	53.326441036807	0.306666666668
6	13300	53.528107703474	0.203333333334
6	13406	54.089185349424	0.407066666668
7	283	6.832173938363	0.101666666667
7	318	6.847173938366	0.320000000004
7	420	7.015093192596	0.320000000004
7	485	7.208426525928	0.208333333335
7	535	7.635830454229	0.203333333334
7	733	8.042497120897	0.203333333334
7	772	8.049163787565	0.210000000002
7	828	8.107700571555	0.320000000004
7	998	8.309367238222	0.21666666667
7	1116	8.497606362761	0.208333333335
7	1201	8.70927302943	0.318333333337
7	1426	9.12665909802	0.218333333337
7	1469	9.173303024989	0.208333333335
7	1537	9.273303024989	0.206666666668
7	1642	9.531659098021	0.318333333337
7	1663	9.855238224479	0.101666666667
7	1683	10.058571557813	0.101666666667
7	1829	10.261904891147	0.101666666667
7	1965	10.421048254344	0.218333333337
7	2075	10.816048254343	0.206666666668
7	2163	11.477189025742	0.101666666667
7	2288	11.685522359077	0.208333333335
7	2324	12.714555003182	0.101666666667
7	2407	13.297405883836	0.101666666667
7	2501	13.50073921717	0.101666666667
7	2665	13.804877964135	0.206666666668
7	2863	14.119877964138	0.318333333337
7	2893	14.206990123148	0.206666666668
7	2934	14.308656789815	0.206666666668
7	2992	15.088566565753	0.101666666667
7	3014	15.29193323242	0.1017
7	3164	15.495266565754	0.101666666667
7	3295	15.636236969502	0.206666666668
7	3404	15.819763463057	0.101666666667
7	3604	16.036430129727	0.21666666667
7	3619	16.052903636172	0.318333333337
7	3834	16.673213425704	0.208333333335
7	3847	16.683213425706	0.320000000004
7	3904	17.013288229771	0.101666666667
7	4025	17.219954896439	0.206666666668
7	4117	18.389510086838	0.101666666667
7	4235	18.597843420173	0.208333333335
7	4349	20.879961199527	0.203333333334
7	4367	20.952396453094	0.101666666667
7	4582	21.286694532861	0.203333333334
7	4621	21.293361199529	0.210000000002
7	4637	21.372396453098	0.318333333337
7	4926	22.563386166624	0.206666666668
7	5129	22.800530121763	0.101666666667
7	5164	22.815530121766	0.320000000004
7	5224	22.980052833294	0.318333333337
7	5387	24.259795555586	0.210000000002
7	5445	24.459795555586	0.206666666668
7	5582	26.140215831444	0.101666666667
7	5620	26.146882498112	0.210000000002
7	5811	26.973301351844	0.210000000002
7	5879	27.173301351844	0.206666666668
7	6033	27.932729596648	0.218333333337
7	6169	28.337729596649	0.318333333337
7	6186	28.613512585572	0.203333333334
7	6287	29.020268141128	0.203333333334
7	6332	29.026934807796	0.210000000002
7	6576	29.829108632045	0.320000000004
7	6650	30.030775298712	0.21666666667
7	6736	30.449438890511	0.101666666667
7	6838	30.652772223845	0.101666666667
7	7043	31.334083629111	0.101666666667
7	7105	31.340750295779	0.208344444446
7	7229	31.547416962447	0.208333333335
7	7322	31.855750295782	0.318333333337
7	7353	32.182378288192	0.305000000001
7	7501	32.792644954861	0.305266666668
7	7574	32.858696995225	0.206666666668
7	7775	33.063696995226	0.208333333335
7	7943	33.271766166483	0.320000000004
7	7988	33.358432833147	0.101666666667
7	8023	33.415978288199	0.318333333337
7	8275	34.17570014342	0.320000000004
7	8294	34.265700143418	0.206666666668
7	8461	34.856752577247	0.320000000004
7	8525	35.058419243914	0.21666666667
7	8569	37.47473644412	0.203333333334
7	8628	37.722303130863	0.203333333334
7	8687	37.88153644412	0.203333333334
7	8743	37.896536444123	0.218333333337
7	8918	38.473756894381	0.101666666667
7	9168	38.995423561052	0.318333333337
7	9246	39.187582860379	0.320000000004
7	9302	39.379249527044	0.206666666668
7	9333	39.573127972029	0.305000000001
7	9376	40.183394638698	0.305266666668
7	9639	40.806727972036	0.318333333337
7	9688	41.012094866925	0.101666666667
7	9845	41.432094866929	0.21666666667
7	9953	41.998603485965	0.101666666667
7	10071	42.201936819299	0.101666666667
7	10268	42.505334126206	0.320000000004
7	10281	42.595334126204	0.206666666668
7	10497	44.171450818865	0.101666666667
7	10629	44.313961059833	0.208333333335
7	10642	44.323961059835	0.320000000004
7	10678	44.389370815762	0.203333333334
7	10734	44.581450818867	0.206666666668
7	10932	45.518923599863	0.208333333335
7	10952	45.559074130244	0.101666666667
7	11156	45.775740796914	0.21666666667
7	11220	45.933923599866	0.318333333337
7	11226	45.987256398291	0.101666666667
7	11238	46.190700842736	0.101777777778
7	11355	46.39403417607	0.101666666667
7	11557	47.394382110582	0.218333333337
7	11701	47.799382110583	0.318333333337
7	11746	47.935775441686	0.101666666667
7	11864	48.144108775021	0.208333333335
7	11943	50.004032125399	0.101666666667
7	12072	50.210698792067	0.206666666668
7	12349	50.976140551011	0.218333333337
7	12372	51.046428223166	0.208333333335
7	12488	51.169473884343	0.208333333335
7	12581	51.461428223169	0.318333333337
7	12820	52.004496164025	0.101666666667
7	12852	52.011162830693	0.210000000002
7	12897	52.059958106391	0.320000000004
7	12929	52.146624773055	0.101666666667
7	13005	52.714474370138	0.305000000001
7	13191	53.32477437014	0.305000000001
7	13235	53.339774370143	0.320000000004
7	13533	54.307518682761	0.218333333337
8	304	6.835507271697	0.308333333335
8	406	7.003426525927	0.308333333335
8	423	7.035507271697	0.305000000001
8	473	7.203426525927	0.203333333334
8	734	8.042497120897	0.203333333334
8	811	8.096033904886	0.308333333335
8	913	8.245830454231	0.203333333334
8	1094	8.49260636276	0.203333333334
8	1123	8.49936723822	0.406666666668
8	1188	8.697606362761	0.306666666668
8	1437	9.168303024988	0.101666666667
8	1448	9.169969691655	0.205000000001
8	1557	9.316659098018	0.408333333335
8	1633	9.519992431352	0.306666666668
8	1657	9.796048254339	0.406666666668
8	1827	10.261904891147	0.101666666667
8	1839	10.263571557814	0.205000000001
8	1997	10.609381587675	0.406666666668
8	2020	10.611048254342	0.408333333335
8	2161	11.477189025742	0.101666666667
8	2271	11.680522359076	0.203333333334
8	2405	13.297405883836	0.101666666667
8	2591	13.699877964134	0.101666666667
8	2610	13.704072550504	0.305000000001
8	2626	13.796967900924	0.101666666667
8	2725	14.00032345648	0.101688888889
8	2838	14.108211297469	0.306666666668
8	2871	14.203656789814	0.101666666667
8	2974	14.819503636166	0.305000000001
8	3119	15.429570302834	0.305066666667
8	3162	15.495266565754	0.101666666667
8	3174	15.496933232421	0.205000000001
8	3577	16.023096796391	0.305000000001
8	3610	16.041236969503	0.306666666668
8	3648	16.226430129725	0.406666666668
8	3823	16.668213425703	0.203333333334
8	3835	16.673213425704	0.310000000002
8	3856	16.809921563104	0.101666666667
8	3901	17.013288229771	0.101666666667
8	3932	17.014954896438	0.103333333334
8	4223	18.592843420172	0.203333333334
8	4242	18.59951008684	0.311666666669
8	4479	21.155729786428	0.305000000001
8	4583	21.286694532861	0.203333333334
8	4628	21.360729786429	0.306666666668
8	4681	21.490027866195	0.203333333334
8	4723	21.746586166622	0.305000000001
8	4753	22.024857474889	0.406666666668
8	4801	22.356719499956	0.305133333333
8	5150	22.803863455097	0.308333333335
8	5215	22.968386166625	0.306666666668
8	5227	23.003863455097	0.305000000001
8	5367	24.254795555585	0.205000000001
8	5401	24.354795555585	0.101666666667
8	5580	26.140215831444	0.101666666667
8	5592	26.141882498111	0.205000000001
8	5676	26.559856907398	0.203333333334
8	5767	26.966634685176	0.203333333334
8	5791	26.968301351843	0.205000000001
8	6089	28.122729596646	0.408333333335
8	6160	28.32606292998	0.306666666668
8	6311	29.021934807795	0.205000000001
8	6391	29.223601474462	0.203333333334
8	6560	29.817441965376	0.308333333335
8	6679	30.22077529871	0.406666666668
8	6734	30.449438890511	0.101666666667
8	6904	30.856105557179	0.305000000001
8	6990	31.234072518	0.101666666667
8	7042	31.334083629111	0.101666666667
8	7211	31.542416962446	0.203333333334
8	7313	31.844083629113	0.306666666668
8	7363	32.245252550779	0.203333333334
8	7422	32.652030328557	0.203444444444
8	7712	32.995978288195	0.203333333334
8	7754	33.058696995225	0.203333333334
8	7931	33.260099499814	0.308333333335
8	7986	33.358432833147	0.101666666667
8	8014	33.40431162153	0.306666666668
8	8235	34.160700143417	0.101666666667
8	8257	34.164033476751	0.308333333335
8	8445	34.845085910578	0.308333333335
8	8544	35.248419243912	0.406666666668
8	8820	38.084869777454	0.203333333334
8	8823	38.086536444121	0.408333333335
8	8917	38.473756894381	0.101666666667
8	8945	38.562349527043	0.305000000001
8	9154	38.983756894383	0.306666666668
8	9204	39.172582860376	0.305000000001
8	9232	39.17591619371	0.308333333335
8	9468	40.386727972032	0.203333333334
8	9630	40.795061305367	0.306666666668
8	9686	41.012094866925	0.101666666667
8	9878	41.622094866927	0.406666666668
8	10069	42.201936819299	0.101666666667
8	10082	42.203603485966	0.306666666668
8	10228	42.490334126203	0.101666666667
8	10250	42.493667459537	0.308333333335
8	10323	43.76451748553	0.305000000001
8	10524	44.186037482428	0.203333333334
8	10618	44.308961059832	0.203333333334
8	10630	44.313961059833	0.310000000002
8	10645	44.374784152199	0.305000000001
8	10668	44.376450818866	0.306666666668
8	10919	45.513923599862	0.203333333334
8	11129	45.762407463578	0.305000000001
8	11211	45.922256933197	0.306666666668
8	11223	45.965740796912	0.406666666668
8	11351	46.39403417607	0.203333333334
8	11430	46.597367509404	0.305000000001
8	11617	47.58438211058	0.408333333335
8	11692	47.787715443914	0.306666666668
8	11852	48.13910877502	0.203333333334
8	11871	48.145775441688	0.311666666669
8	11942	50.004032125399	0.101666666667
8	12008	50.105698792066	0.101666666667
8	12359	51.041428223165	0.203333333334
8	12476	51.164473884342	0.203333333334
8	12482	51.166140551009	0.408333333335
8	12572	51.4497615565	0.306666666668
8	12816	52.004496164025	0.203333333334
8	12885	52.048291439722	0.308333333335
8	12927	52.146624773055	0.101666666667
8	12956	52.207829497359	0.305000000001
8	13219	53.328107703474	0.308333333335
8	13301	53.528107703474	0.203333333334
8	13347	53.682118682756	0.406666666668
8	13582	54.495852016092	0.406666666668
8	13586	54.497518682759	0.408333333335
8	13634	54.702118682754	0.101666666667
9	311	6.837173938364	0.310000000002
9	365	6.935507271697	0.205000000001
9	411	7.005093192594	0.310000000002
9	441	7.103426525927	0.103333333334
9	760	8.044163787564	0.205000000001
9	816	8.097700571553	0.310000000002
9	842	8.145830454231	0.103333333334
9	1069	8.39936723822	0.306666666668
9	1102	8.494273029427	0.205000000001
9	1191	8.699273029428	0.308333333335
9	1438	9.168303024988	0.101666666667
9	1468	9.173303024989	0.208333333335
9	1508	9.216659098018	0.308333333335
9	1636	9.521659098019	0.308333333335
9	1673	9.956904891146	0.101666666667
9	1722	10.16023822448	0.101666666667
9	1760	10.163571557814	0.105000000001
9	1985	10.511048254342	0.308333333335
9	2033	10.711048254342	0.101666666667
9	2109	11.17217791463	0.101666666667
9	2121	11.375522359075	0.101677777778
9	2229	11.580522359076	0.103333333334
9	2327	12.789050328279	0.203333333334
9	2361	13.195739217169	0.203355555556
9	2570	13.604072550504	0.205000000001
9	2592	13.699877964134	0.101666666667
9	2790	14.101990123147	0.101666666667
9	2845	14.109877964136	0.308333333335
9	2872	14.203656789814	0.101666666667
9	3004	15.19023323242	0.101666666667
9	3053	15.393599899087	0.101666666667
9	3091	15.396933232421	0.105000000001
9	3216	15.531236969501	0.101666666667
9	3509	15.923096796391	0.205000000001
9	3613	16.04290363617	0.308333333335
9	3630	16.126430129725	0.306666666668
9	3826	16.66988009237	0.205000000001
9	3841	16.674880092371	0.311666666669
9	3850	16.708254896437	0.101666666667
9	3862	16.911621563104	0.1017
9	3963	17.114954896438	0.101666666667
9	4184	18.492843420172	0.103333333334
9	4217	18.49951008684	0.211666666669
9	4355	20.881927150468	0.203333333334
9	4427	21.055729786428	0.205000000001
9	4609	21.288361199528	0.205000000001
9	4631	21.362396453096	0.308333333335
9	4651	21.390027866195	0.103333333334
9	4844	22.458386166623	0.101666666667
9	5157	22.805530121764	0.310000000002
9	5203	22.903863455097	0.205000000001
9	5218	22.970052833292	0.308333333335
9	5313	24.154795555585	0.105000000001
9	5402	24.354795555585	0.101666666667
9	5467	25.835160275888	0.101666666667
9	5508	26.038549164777	0.101666666667
9	5546	26.041882498111	0.105000000001
9	5740	26.868301351843	0.105000000001
9	5825	27.068301351843	0.101666666667
9	6063	28.022729596646	0.308333333335
9	6163	28.327729596647	0.308333333335
9	6260	28.921934807795	0.105000000001
9	6353	29.123601474462	0.103333333334
9	6564	29.819108632043	0.310000000002
9	6618	29.940972223844	0.203333333334
9	6661	30.12077529871	0.306666666668
9	6690	30.347772223844	0.203466666666
9	6819	30.622250295777	0.305000000001
9	6887	30.756105557179	0.205000000001
9	6964	31.232416962444	0.305166666666
9	7006	31.235750295778	0.103344444445
9	7153	31.442416962446	0.103333333334
9	7316	31.84575029578	0.308333333335
9	7416	32.646499499811	0.305000000001
9	7466	32.753696995224	0.101666666667
9	7604	32.895978288195	0.103333333334
9	7761	33.060363661892	0.205000000001
9	7901	33.25676616648	0.305000000001
9	7936	33.261766166481	0.310000000002
9	8017	33.405978288197	0.308333333335
9	8236	34.160700143417	0.101666666667
9	8264	34.165700143418	0.310000000002
9	8449	34.846752577245	0.310000000002
9	8532	35.148419243912	0.306666666668
9	8634	37.761723561046	0.305000000001
9	8770	37.984869777454	0.103333333334
9	8781	37.986536444121	0.308333333335
9	8872	38.372090227714	0.305366666667
9	9161	38.98542356105	0.308333333335
9	9237	39.177582860377	0.310000000002
9	9256	39.274249527043	0.101666666667
9	9428	40.286727972032	0.103333333334
9	9455	40.300161533589	0.305000000001
9	9633	40.796727972034	0.308333333335
9	9646	40.910428200258	0.305266666668
9	9858	41.522094866927	0.306666666668
9	9885	41.69335904152	0.203333333334
9	9986	42.100270152632	0.203333333334
9	10020	42.103603485966	0.206666666668
9	10229	42.490334126203	0.101666666667
9	10257	42.495334126204	0.310000000002
9	10604	44.276450818866	0.206666666668
9	10621	44.310627726499	0.205000000001
9	10636	44.3156277265	0.311666666669
9	10688	44.476450818866	0.101666666667
9	10856	45.413923599862	0.103333333334
9	11055	45.662407463578	0.205000000001
9	11192	45.865740796912	0.306666666668
9	11214	45.923923599864	0.308333333335
9	11307	46.29403417607	0.103333333334
9	11409	46.497367509404	0.205000000001
9	11587	47.48438211058	0.308333333335
9	11695	47.789382110581	0.308333333335
9	11813	48.03910877502	0.103333333334
9	11846	48.045775441688	0.211666666669
9	11885	49.698954347621	0.101666666667
9	11897	49.902365458732	0.101744444444
9	12009	50.105698792066	0.101666666667
9	12266	50.941428223165	0.103333333334
9	12414	51.066140551009	0.308333333335
9	12481	51.166140551009	0.205000000001
9	12563	51.434524773054	0.305000000001
9	12575	51.451428223167	0.308333333335
9	12834	52.006162830692	0.205000000001
9	12855	52.044958106388	0.305000000001
9	12890	52.049958106389	0.310000000002
9	12911	52.107829497359	0.205000000001
9	13225	53.329774370141	0.310000000002
9	13261	53.428107703474	0.103333333334
9	13557	54.397518682759	0.308333333335

