                                                                
version 2
run General-0-20190605-14:41:59-22060
attr configname General
attr datetime 20190605-14:41:59
attr experiment General
attr inifile omnetpp.ini
attr iterationvars ""
attr iterationvarsf ""
attr measurement ""
attr network networks.Net5
attr processid 22060
attr repetition 0
attr replication #0
attr resultdir results
attr runnumber 0
attr seedset 0
param **.appType "\"App\""
param **.app.packetLength "1500 bytes"
param **.app.totalNodes 3
param **.destAddresses "\"0\""
param **.sendIaTime "uniform(5s, 10s)"
param **.sendIaTimeEvil 10ms

vector 0 Net5.rte[1].app endToEndDelay:vector ETV
attr interpolationmode none
attr title "end-to-end delay of arrived packets, vector"
attr unit s
vector 1 Net5.rte[0].app endToEndDelay:vector ETV
attr interpolationmode none
attr title "end-to-end delay of arrived packets, vector"
attr unit s
vector 2 Net5.rte[2].app endToEndDelay:vector ETV
attr interpolationmode none
attr title "end-to-end delay of arrived packets, vector"
attr unit s
2	1027 1416118 35 1758265 8.150734178189 6819.841229627689 32768 0.101666666667 0.103333333334 3331.4183777869 338.69472292944
0	1417145 1416146 7 1758616 7.845734178188 6821.202896294356 32768 0.101666666667 0.103333333334 3331.4168333424 338.69440612339
2	2833291 1459160 1758319 3515042 6820.051229627689 13606.201229627689 32768 0.101666666667 0.101666666667 3331.4133333424 338.69368889117
0	4292451 1459157 1758670 3515555 6821.412896294356 13608.192896294356 32768 0.101666666667 0.101666666667 3331.4133333424 338.69368889117
0	5751608 1474509 3515609 5271913 13608.402896294356 20392.872896294356 32768 0.101666666667 0.101666666667 3331.4133333424 338.69368889117
2	7226117 1474527 3515096 5272372 13606.411229627689 20394.661229627689 32768 0.101666666667 0.101666666667 3331.4133333424 338.69368889117
0	8700644 1474512 5271967 7028219 20393.082896294356 27177.552896294356 32768 0.101666666667 0.101666666667 3331.4133333424 338.69368889117
2	10175156 1474518 5272426 7029838 20394.871229627689 27183.751229627689 32768 0.101666666667 0.101666666667 3331.4133333424 338.69368889117
2	11649674 1474511 7029892 8785809 27183.961229627689 33966.961229627689 32768 0.101666666667 0.101666666667 3331.4133333424 338.69368889117
0	13124185 1474514 7028273 8785899 27177.762896294356 33967.272896294356 32768 0.101666666667 0.101666666667 3331.4133333424 338.69368889117
0	14598699 1484645 8785953 10542324 33967.482896294356 40752.162896294356 32768 0.101666666667 0.101666666667 3331.4133333424 338.69368889117
2	16083344 1484625 8785872 10543066 33967.171229627689 40755.001229627689 32768 0.101666666667 0.101666666667 3331.4133333424 338.69368889117
