version 2
run General-37-20190610-18:04:03-11492
attr configname General
attr datetime 20190610-18:04:03
attr experiment General
attr inifile omnetpp.ini
attr iterationvars ""
attr iterationvarsf ""
attr measurement ""
attr network networks.Net5
attr processid 11492
attr repetition 37
attr replication #37
attr resultdir results
attr runnumber 37
attr seedset 37
param **.appType "\"App\""
param **.app.packetLength "1500 bytes"
param **.app.totalNodes 10
param **.destAddresses "\"0\""
param **.sendIaTime "uniform(5s, 10s)"
param **.sendIaTimeEvil 10ms

scalar Net5.rte[0].app hopCount:mean 2.5844155844156
attr interpolationmode none
attr title "hop count of arrived packets, mean"
scalar Net5.rte[0].app hopCount:max 4
attr interpolationmode none
attr title "hop count of arrived packets, max"
scalar Net5.rte[0].app endToEndDelay:mean 0.26355353535455
attr interpolationmode none
attr title "end-to-end delay of arrived packets, mean"
attr unit s
scalar Net5.rte[0].app endToEndDelay:max 0.415000000003
attr interpolationmode none
attr title "end-to-end delay of arrived packets, max"
attr unit s
statistic Net5.rte[0].routing outputIf:histogram
field count 143
field mean -0.53846153846154
field stddev 0.50027078258145
field min -1
field max 0
field sum -77
field sqrsum 77
attr interpolationmode none
attr title "output interface for each routed packet, histogram"
bin	-inf	0
bin	-2	0
bin	-1	77
bin	0	66
bin	1	0
scalar Net5.rte[0].routing drop:count 0
attr interpolationmode none
attr title "dropped packet byte length, count"
attr unit bytes
scalar Net5.rte[0].routing drop:sum 0
attr interpolationmode none
attr title "dropped packet byte length, sum"
attr unit bytes
scalar Net5.rte[0].queue[0] rxBytes:count 77
attr interpolationmode none
attr title "received packet byte length, count"
attr unit bytes
scalar Net5.rte[0].queue[0] rxBytes:sum 115630
attr interpolationmode none
attr title "received packet byte length, sum"
attr unit bytes
statistic Net5.rte[0].queue[0] rxBytes:histogram
field count 77
field mean 1501.6883116883
field stddev 11.168870908706
field min 1500
field max 1590
field sum 115630
field sqrsum 173649700
attr interpolationmode none
attr title "received packet byte length, histogram"
attr unit bytes
bin	-inf	0
bin	1476	0
bin	1478	0
bin	1480	0
bin	1482	0
bin	1484	0
bin	1486	0
bin	1488	0
bin	1490	0
bin	1492	0
bin	1494	0
bin	1496	0
bin	1498	0
bin	1500	75
bin	1502	0
bin	1504	0
bin	1506	0
bin	1508	0
bin	1510	0
bin	1512	0
bin	1514	0
bin	1516	0
bin	1518	0
bin	1520	0
bin	1522	0
bin	1524	0
bin	1526	0
bin	1528	0
bin	1530	0
bin	1532	0
bin	1534	0
bin	1536	0
bin	1538	0
bin	1540	1
bin	1542	0
bin	1544	0
bin	1546	0
bin	1548	0
bin	1550	0
bin	1552	0
bin	1554	0
bin	1556	0
bin	1558	0
bin	1560	0
bin	1562	0
bin	1564	0
bin	1566	0
bin	1568	0
bin	1570	0
bin	1572	0
bin	1574	0
bin	1576	0
bin	1578	0
bin	1580	0
bin	1582	0
bin	1584	0
bin	1586	0
bin	1588	0
bin	1590	1
bin	1592	0
bin	1594	0
bin	1596	0
bin	1598	0
bin	1600	0
bin	1602	0
bin	1604	0
bin	1606	0
bin	1608	0
bin	1610	0
bin	1612	0
bin	1614	0
scalar Net5.rte[0].queue[0] txBytes:count 66
attr interpolationmode none
attr title "transmitting packet byte length, count"
attr unit bytes
scalar Net5.rte[0].queue[0] txBytes:sum 99070
attr interpolationmode none
attr title "transmitting packet byte length, sum"
attr unit bytes
statistic Net5.rte[0].queue[0] txBytes:histogram
field count 66
field mean 1501.0606060606
field stddev 5.5826070222961
field min 1500
field max 1540
field sum 99070
field sqrsum 148712100
attr interpolationmode none
attr title "transmitting packet byte length, histogram"
attr unit bytes
bin	-inf	0
bin	1490	0
bin	1491	0
bin	1492	0
bin	1493	0
bin	1494	0
bin	1495	0
bin	1496	0
bin	1497	0
bin	1498	0
bin	1499	0
bin	1500	63
bin	1501	0
bin	1502	0
bin	1503	0
bin	1504	0
bin	1505	0
bin	1506	0
bin	1507	0
bin	1508	0
bin	1509	0
bin	1510	1
bin	1511	0
bin	1512	0
bin	1513	0
bin	1514	0
bin	1515	0
bin	1516	0
bin	1517	0
bin	1518	0
bin	1519	0
bin	1520	1
bin	1521	0
bin	1522	0
bin	1523	0
bin	1524	0
bin	1525	0
bin	1526	0
bin	1527	0
bin	1528	0
bin	1529	0
bin	1530	0
bin	1531	0
bin	1532	0
bin	1533	0
bin	1534	0
bin	1535	0
bin	1536	0
bin	1537	0
bin	1538	0
bin	1539	0
bin	1540	1
bin	1541	0
bin	1542	0
bin	1543	0
bin	1544	0
bin	1545	0
bin	1546	0
bin	1547	0
bin	1548	0
bin	1549	0
bin	1550	0
scalar Net5.rte[0].queue[0] busy:timeavg 0.0028329435857117
attr interpolationmode sample-hold
attr title "server busy state, timeavg"
scalar Net5.rte[0].queue[0] qlen:timeavg 0.010036975861431
attr interpolationmode sample-hold
attr title "queue length, timeavg"
scalar Net5.rte[0].queue[0] qlen:max 9
attr interpolationmode sample-hold
attr title "queue length, max"
scalar Net5.rte[0].queue[0] drop:count 0
attr interpolationmode none
attr title "dropped packet byte length, count"
attr unit bytes
scalar Net5.rte[0].queue[0] drop:sum 0
attr interpolationmode none
attr title "dropped packet byte length, sum"
attr unit bytes
scalar Net5.rte[1].app hopCount:mean 2.2705882352941
attr interpolationmode none
attr title "hop count of arrived packets, mean"
scalar Net5.rte[1].app hopCount:max 4
attr interpolationmode none
attr title "hop count of arrived packets, max"
scalar Net5.rte[1].app endToEndDelay:mean 0.23161176470675
attr interpolationmode none
attr title "end-to-end delay of arrived packets, mean"
attr unit s
scalar Net5.rte[1].app endToEndDelay:max 0.413333333336
attr interpolationmode none
attr title "end-to-end delay of arrived packets, max"
attr unit s
statistic Net5.rte[1].routing outputIf:histogram
field count 179
field mean -0.11731843575419
field stddev 0.90732448034633
field min -1
field max 1
field sum -21
field sqrsum 149
attr interpolationmode none
attr title "output interface for each routed packet, histogram"
bin	-inf	0
bin	-2	0
bin	-1	85
bin	0	30
bin	1	64
bin	2	0
scalar Net5.rte[1].routing drop:count 0
attr interpolationmode none
attr title "dropped packet byte length, count"
attr unit bytes
scalar Net5.rte[1].routing drop:sum 0
attr interpolationmode none
attr title "dropped packet byte length, sum"
attr unit bytes
scalar Net5.rte[1].queue[0] rxBytes:count 42
attr interpolationmode none
attr title "received packet byte length, count"
attr unit bytes
scalar Net5.rte[1].queue[0] rxBytes:sum 63060
attr interpolationmode none
attr title "received packet byte length, sum"
attr unit bytes
statistic Net5.rte[1].queue[0] rxBytes:histogram
field count 42
field mean 1501.4285714286
field stddev 6.833000473462
field min 1500
field max 1540
field sum 63060
field sqrsum 94682000
attr interpolationmode none
attr title "received packet byte length, histogram"
attr unit bytes
bin	-inf	0
bin	1490	0
bin	1491	0
bin	1492	0
bin	1493	0
bin	1494	0
bin	1495	0
bin	1496	0
bin	1497	0
bin	1498	0
bin	1499	0
bin	1500	40
bin	1501	0
bin	1502	0
bin	1503	0
bin	1504	0
bin	1505	0
bin	1506	0
bin	1507	0
bin	1508	0
bin	1509	0
bin	1510	0
bin	1511	0
bin	1512	0
bin	1513	0
bin	1514	0
bin	1515	0
bin	1516	0
bin	1517	0
bin	1518	0
bin	1519	0
bin	1520	1
bin	1521	0
bin	1522	0
bin	1523	0
bin	1524	0
bin	1525	0
bin	1526	0
bin	1527	0
bin	1528	0
bin	1529	0
bin	1530	0
bin	1531	0
bin	1532	0
bin	1533	0
bin	1534	0
bin	1535	0
bin	1536	0
bin	1537	0
bin	1538	0
bin	1539	0
bin	1540	1
bin	1541	0
bin	1542	0
bin	1543	0
bin	1544	0
bin	1545	0
bin	1546	0
bin	1547	0
bin	1548	0
bin	1549	0
bin	1550	0
scalar Net5.rte[1].queue[0] txBytes:count 30
attr interpolationmode none
attr title "transmitting packet byte length, count"
attr unit bytes
scalar Net5.rte[1].queue[0] txBytes:sum 45090
attr interpolationmode none
attr title "transmitting packet byte length, sum"
attr unit bytes
statistic Net5.rte[1].queue[0] txBytes:histogram
field count 30
field mean 1503
field stddev 16.431676725155
field min 1500
field max 1590
field sum 45090
field sqrsum 67778100
attr interpolationmode none
attr title "transmitting packet byte length, histogram"
attr unit bytes
bin	-inf	0
bin	1476	0
bin	1478	0
bin	1480	0
bin	1482	0
bin	1484	0
bin	1486	0
bin	1488	0
bin	1490	0
bin	1492	0
bin	1494	0
bin	1496	0
bin	1498	0
bin	1500	29
bin	1502	0
bin	1504	0
bin	1506	0
bin	1508	0
bin	1510	0
bin	1512	0
bin	1514	0
bin	1516	0
bin	1518	0
bin	1520	0
bin	1522	0
bin	1524	0
bin	1526	0
bin	1528	0
bin	1530	0
bin	1532	0
bin	1534	0
bin	1536	0
bin	1538	0
bin	1540	0
bin	1542	0
bin	1544	0
bin	1546	0
bin	1548	0
bin	1550	0
bin	1552	0
bin	1554	0
bin	1556	0
bin	1558	0
bin	1560	0
bin	1562	0
bin	1564	0
bin	1566	0
bin	1568	0
bin	1570	0
bin	1572	0
bin	1574	0
bin	1576	0
bin	1578	0
bin	1580	0
bin	1582	0
bin	1584	0
bin	1586	0
bin	1588	0
bin	1590	1
bin	1592	0
bin	1594	0
bin	1596	0
bin	1598	0
bin	1600	0
bin	1602	0
bin	1604	0
bin	1606	0
bin	1608	0
bin	1610	0
bin	1612	0
bin	1614	0
scalar Net5.rte[1].queue[0] busy:timeavg 0.0012893653606602
attr interpolationmode sample-hold
attr title "server busy state, timeavg"
scalar Net5.rte[1].queue[0] qlen:timeavg 0.0012867917771065
attr interpolationmode sample-hold
attr title "queue length, timeavg"
scalar Net5.rte[1].queue[0] qlen:max 3
attr interpolationmode sample-hold
attr title "queue length, max"
scalar Net5.rte[1].queue[0] drop:count 0
attr interpolationmode none
attr title "dropped packet byte length, count"
attr unit bytes
scalar Net5.rte[1].queue[0] drop:sum 0
attr interpolationmode none
attr title "dropped packet byte length, sum"
attr unit bytes
scalar Net5.rte[1].queue[1] rxBytes:count 43
attr interpolationmode none
attr title "received packet byte length, count"
attr unit bytes
scalar Net5.rte[1].queue[1] rxBytes:sum 64620
attr interpolationmode none
attr title "received packet byte length, sum"
attr unit bytes
statistic Net5.rte[1].queue[1] rxBytes:histogram
field count 43
field mean 1502.7906976744
field stddev 12.784957938983
field min 1500
field max 1560
field sum 64620
field sqrsum 97117200
attr interpolationmode none
attr title "received packet byte length, histogram"
attr unit bytes
bin	-inf	0
bin	1485	0
bin	1486	0
bin	1487	0
bin	1488	0
bin	1489	0
bin	1490	0
bin	1491	0
bin	1492	0
bin	1493	0
bin	1494	0
bin	1495	0
bin	1496	0
bin	1497	0
bin	1498	0
bin	1499	0
bin	1500	41
bin	1501	0
bin	1502	0
bin	1503	0
bin	1504	0
bin	1505	0
bin	1506	0
bin	1507	0
bin	1508	0
bin	1509	0
bin	1510	0
bin	1511	0
bin	1512	0
bin	1513	0
bin	1514	0
bin	1515	0
bin	1516	0
bin	1517	0
bin	1518	0
bin	1519	0
bin	1520	0
bin	1521	0
bin	1522	0
bin	1523	0
bin	1524	0
bin	1525	0
bin	1526	0
bin	1527	0
bin	1528	0
bin	1529	0
bin	1530	0
bin	1531	0
bin	1532	0
bin	1533	0
bin	1534	0
bin	1535	0
bin	1536	0
bin	1537	0
bin	1538	0
bin	1539	0
bin	1540	0
bin	1541	0
bin	1542	0
bin	1543	0
bin	1544	0
bin	1545	0
bin	1546	0
bin	1547	0
bin	1548	0
bin	1549	0
bin	1550	0
bin	1551	0
bin	1552	0
bin	1553	0
bin	1554	0
bin	1555	0
bin	1556	0
bin	1557	0
bin	1558	0
bin	1559	0
bin	1560	2
bin	1561	0
bin	1562	0
bin	1563	0
bin	1564	0
bin	1565	0
bin	1566	0
bin	1567	0
bin	1568	0
bin	1569	0
bin	1570	0
bin	1571	0
bin	1572	0
bin	1573	0
bin	1574	0
bin	1575	0
scalar Net5.rte[1].queue[1] txBytes:count 64
attr interpolationmode none
attr title "transmitting packet byte length, count"
attr unit bytes
scalar Net5.rte[1].queue[1] txBytes:sum 96210
attr interpolationmode none
attr title "transmitting packet byte length, sum"
attr unit bytes
statistic Net5.rte[1].queue[1] txBytes:histogram
field count 64
field mean 1503.28125
field stddev 14.370901762253
field min 1500
field max 1590
field sum 96210
field sqrsum 144643700
attr interpolationmode none
attr title "transmitting packet byte length, histogram"
attr unit bytes
bin	-inf	0
bin	1476	0
bin	1478	0
bin	1480	0
bin	1482	0
bin	1484	0
bin	1486	0
bin	1488	0
bin	1490	0
bin	1492	0
bin	1494	0
bin	1496	0
bin	1498	0
bin	1500	60
bin	1502	0
bin	1504	0
bin	1506	0
bin	1508	0
bin	1510	0
bin	1512	0
bin	1514	0
bin	1516	0
bin	1518	0
bin	1520	1
bin	1522	0
bin	1524	0
bin	1526	0
bin	1528	0
bin	1530	0
bin	1532	0
bin	1534	0
bin	1536	0
bin	1538	0
bin	1540	1
bin	1542	0
bin	1544	0
bin	1546	0
bin	1548	0
bin	1550	0
bin	1552	0
bin	1554	0
bin	1556	0
bin	1558	0
bin	1560	1
bin	1562	0
bin	1564	0
bin	1566	0
bin	1568	0
bin	1570	0
bin	1572	0
bin	1574	0
bin	1576	0
bin	1578	0
bin	1580	0
bin	1582	0
bin	1584	0
bin	1586	0
bin	1588	0
bin	1590	1
bin	1592	0
bin	1594	0
bin	1596	0
bin	1598	0
bin	1600	0
bin	1602	0
bin	1604	0
bin	1606	0
bin	1608	0
bin	1610	0
bin	1612	0
bin	1614	0
scalar Net5.rte[1].queue[1] busy:timeavg 0.0027511608194182
attr interpolationmode sample-hold
attr title "server busy state, timeavg"
scalar Net5.rte[1].queue[1] qlen:timeavg 0.0056618838192687
attr interpolationmode sample-hold
attr title "queue length, timeavg"
scalar Net5.rte[1].queue[1] qlen:max 6
attr interpolationmode sample-hold
attr title "queue length, max"
scalar Net5.rte[1].queue[1] drop:count 0
attr interpolationmode none
attr title "dropped packet byte length, count"
attr unit bytes
scalar Net5.rte[1].queue[1] drop:sum 0
attr interpolationmode none
attr title "dropped packet byte length, sum"
attr unit bytes
scalar Net5.rte[2].app hopCount:mean 1.8214285714286
attr interpolationmode none
attr title "hop count of arrived packets, mean"
scalar Net5.rte[2].app hopCount:max 3
attr interpolationmode none
attr title "hop count of arrived packets, max"
scalar Net5.rte[2].app endToEndDelay:mean 0.18698677248773
attr interpolationmode none
attr title "end-to-end delay of arrived packets, mean"
attr unit s
scalar Net5.rte[2].app endToEndDelay:max 0.313333333336
attr interpolationmode none
attr title "end-to-end delay of arrived packets, max"
attr unit s
statistic Net5.rte[2].routing outputIf:histogram
field count 266
field mean 0.68045112781955
field stddev 1.437815882753
field min -1
field max 3
field sum 181
field sqrsum 671
attr interpolationmode none
attr title "output interface for each routed packet, histogram"
bin	-inf	0
bin	-2	0
bin	-1	84
bin	0	42
bin	1	51
bin	2	53
bin	3	36
bin	4	0
scalar Net5.rte[2].routing drop:count 0
attr interpolationmode none
attr title "dropped packet byte length, count"
attr unit bytes
scalar Net5.rte[2].routing drop:sum 0
attr interpolationmode none
attr title "dropped packet byte length, sum"
attr unit bytes
scalar Net5.rte[2].queue[0] rxBytes:count 30
attr interpolationmode none
attr title "received packet byte length, count"
attr unit bytes
scalar Net5.rte[2].queue[0] rxBytes:sum 45090
attr interpolationmode none
attr title "received packet byte length, sum"
attr unit bytes
statistic Net5.rte[2].queue[0] rxBytes:histogram
field count 30
field mean 1503
field stddev 16.431676725155
field min 1500
field max 1590
field sum 45090
field sqrsum 67778100
attr interpolationmode none
attr title "received packet byte length, histogram"
attr unit bytes
bin	-inf	0
bin	1476	0
bin	1478	0
bin	1480	0
bin	1482	0
bin	1484	0
bin	1486	0
bin	1488	0
bin	1490	0
bin	1492	0
bin	1494	0
bin	1496	0
bin	1498	0
bin	1500	29
bin	1502	0
bin	1504	0
bin	1506	0
bin	1508	0
bin	1510	0
bin	1512	0
bin	1514	0
bin	1516	0
bin	1518	0
bin	1520	0
bin	1522	0
bin	1524	0
bin	1526	0
bin	1528	0
bin	1530	0
bin	1532	0
bin	1534	0
bin	1536	0
bin	1538	0
bin	1540	0
bin	1542	0
bin	1544	0
bin	1546	0
bin	1548	0
bin	1550	0
bin	1552	0
bin	1554	0
bin	1556	0
bin	1558	0
bin	1560	0
bin	1562	0
bin	1564	0
bin	1566	0
bin	1568	0
bin	1570	0
bin	1572	0
bin	1574	0
bin	1576	0
bin	1578	0
bin	1580	0
bin	1582	0
bin	1584	0
bin	1586	0
bin	1588	0
bin	1590	1
bin	1592	0
bin	1594	0
bin	1596	0
bin	1598	0
bin	1600	0
bin	1602	0
bin	1604	0
bin	1606	0
bin	1608	0
bin	1610	0
bin	1612	0
bin	1614	0
scalar Net5.rte[2].queue[0] txBytes:count 42
attr interpolationmode none
attr title "transmitting packet byte length, count"
attr unit bytes
scalar Net5.rte[2].queue[0] txBytes:sum 63060
attr interpolationmode none
attr title "transmitting packet byte length, sum"
attr unit bytes
statistic Net5.rte[2].queue[0] txBytes:histogram
field count 42
field mean 1501.4285714286
field stddev 6.833000473462
field min 1500
field max 1540
field sum 63060
field sqrsum 94682000
attr interpolationmode none
attr title "transmitting packet byte length, histogram"
attr unit bytes
bin	-inf	0
bin	1490	0
bin	1491	0
bin	1492	0
bin	1493	0
bin	1494	0
bin	1495	0
bin	1496	0
bin	1497	0
bin	1498	0
bin	1499	0
bin	1500	40
bin	1501	0
bin	1502	0
bin	1503	0
bin	1504	0
bin	1505	0
bin	1506	0
bin	1507	0
bin	1508	0
bin	1509	0
bin	1510	0
bin	1511	0
bin	1512	0
bin	1513	0
bin	1514	0
bin	1515	0
bin	1516	0
bin	1517	0
bin	1518	0
bin	1519	0
bin	1520	1
bin	1521	0
bin	1522	0
bin	1523	0
bin	1524	0
bin	1525	0
bin	1526	0
bin	1527	0
bin	1528	0
bin	1529	0
bin	1530	0
bin	1531	0
bin	1532	0
bin	1533	0
bin	1534	0
bin	1535	0
bin	1536	0
bin	1537	0
bin	1538	0
bin	1539	0
bin	1540	1
bin	1541	0
bin	1542	0
bin	1543	0
bin	1544	0
bin	1545	0
bin	1546	0
bin	1547	0
bin	1548	0
bin	1549	0
bin	1550	0
scalar Net5.rte[2].queue[0] busy:timeavg 0.0018032242103011
attr interpolationmode sample-hold
attr title "server busy state, timeavg"
scalar Net5.rte[2].queue[0] qlen:timeavg 0
attr interpolationmode sample-hold
attr title "queue length, timeavg"
scalar Net5.rte[2].queue[0] qlen:max 0
attr interpolationmode sample-hold
attr title "queue length, max"
scalar Net5.rte[2].queue[0] drop:count 0
attr interpolationmode none
attr title "dropped packet byte length, count"
attr unit bytes
scalar Net5.rte[2].queue[0] drop:sum 0
attr interpolationmode none
attr title "dropped packet byte length, sum"
attr unit bytes
scalar Net5.rte[2].queue[1] rxBytes:count 58
attr interpolationmode none
attr title "received packet byte length, count"
attr unit bytes
scalar Net5.rte[2].queue[1] rxBytes:sum 87020
attr interpolationmode none
attr title "received packet byte length, sum"
attr unit bytes
statistic Net5.rte[2].queue[1] rxBytes:histogram
field count 58
field mean 1500.3448275862
field stddev 1.8405922400796
field min 1500
field max 1510
field sum 87020
field sqrsum 130560200
attr interpolationmode none
attr title "received packet byte length, histogram"
attr unit bytes
bin	-inf	0
bin	1497	0
bin	1498	0
bin	1499	0
bin	1500	56
bin	1501	0
bin	1502	0
bin	1503	0
bin	1504	0
bin	1505	0
bin	1506	0
bin	1507	0
bin	1508	0
bin	1509	0
bin	1510	2
bin	1511	0
bin	1512	0
bin	1513	0
scalar Net5.rte[2].queue[1] txBytes:count 51
attr interpolationmode none
attr title "transmitting packet byte length, count"
attr unit bytes
scalar Net5.rte[2].queue[1] txBytes:sum 76550
attr interpolationmode none
attr title "transmitting packet byte length, sum"
attr unit bytes
statistic Net5.rte[2].queue[1] txBytes:histogram
field count 51
field mean 1500.9803921569
field stddev 5.0019603999992
field min 1500
field max 1530
field sum 76550
field sqrsum 114901300
attr interpolationmode none
attr title "transmitting packet byte length, histogram"
attr unit bytes
bin	-inf	0
bin	1492	0
bin	1493	0
bin	1494	0
bin	1495	0
bin	1496	0
bin	1497	0
bin	1498	0
bin	1499	0
bin	1500	49
bin	1501	0
bin	1502	0
bin	1503	0
bin	1504	0
bin	1505	0
bin	1506	0
bin	1507	0
bin	1508	0
bin	1509	0
bin	1510	0
bin	1511	0
bin	1512	0
bin	1513	0
bin	1514	0
bin	1515	0
bin	1516	0
bin	1517	0
bin	1518	0
bin	1519	0
bin	1520	1
bin	1521	0
bin	1522	0
bin	1523	0
bin	1524	0
bin	1525	0
bin	1526	0
bin	1527	0
bin	1528	0
bin	1529	0
bin	1530	1
bin	1531	0
bin	1532	0
bin	1533	0
bin	1534	0
bin	1535	0
bin	1536	0
bin	1537	0
bin	1538	0
scalar Net5.rte[2].queue[1] busy:timeavg 0.0021889757897077
attr interpolationmode sample-hold
attr title "server busy state, timeavg"
scalar Net5.rte[2].queue[1] qlen:timeavg 0.0017586154287123
attr interpolationmode sample-hold
attr title "queue length, timeavg"
scalar Net5.rte[2].queue[1] qlen:max 4
attr interpolationmode sample-hold
attr title "queue length, max"
scalar Net5.rte[2].queue[1] drop:count 0
attr interpolationmode none
attr title "dropped packet byte length, count"
attr unit bytes
scalar Net5.rte[2].queue[1] drop:sum 0
attr interpolationmode none
attr title "dropped packet byte length, sum"
attr unit bytes
scalar Net5.rte[2].queue[2] rxBytes:count 79
attr interpolationmode none
attr title "received packet byte length, count"
attr unit bytes
scalar Net5.rte[2].queue[2] rxBytes:sum 118590
attr interpolationmode none
attr title "received packet byte length, sum"
attr unit bytes
statistic Net5.rte[2].queue[2] rxBytes:histogram
field count 79
field mean 1501.1392405063
field stddev 6.4025919775668
field min 1500
field max 1540
field sum 118590
field sqrsum 178023300
attr interpolationmode none
attr title "received packet byte length, histogram"
attr unit bytes
bin	-inf	0
bin	1490	0
bin	1491	0
bin	1492	0
bin	1493	0
bin	1494	0
bin	1495	0
bin	1496	0
bin	1497	0
bin	1498	0
bin	1499	0
bin	1500	76
bin	1501	0
bin	1502	0
bin	1503	0
bin	1504	0
bin	1505	0
bin	1506	0
bin	1507	0
bin	1508	0
bin	1509	0
bin	1510	1
bin	1511	0
bin	1512	0
bin	1513	0
bin	1514	0
bin	1515	0
bin	1516	0
bin	1517	0
bin	1518	0
bin	1519	0
bin	1520	0
bin	1521	0
bin	1522	0
bin	1523	0
bin	1524	0
bin	1525	0
bin	1526	0
bin	1527	0
bin	1528	0
bin	1529	0
bin	1530	0
bin	1531	0
bin	1532	0
bin	1533	0
bin	1534	0
bin	1535	0
bin	1536	0
bin	1537	0
bin	1538	0
bin	1539	0
bin	1540	2
bin	1541	0
bin	1542	0
bin	1543	0
bin	1544	0
bin	1545	0
bin	1546	0
bin	1547	0
bin	1548	0
bin	1549	0
bin	1550	0
scalar Net5.rte[2].queue[2] txBytes:count 53
attr interpolationmode none
attr title "transmitting packet byte length, count"
attr unit bytes
scalar Net5.rte[2].queue[2] txBytes:sum 79570
attr interpolationmode none
attr title "transmitting packet byte length, sum"
attr unit bytes
statistic Net5.rte[2].queue[2] txBytes:histogram
field count 53
field mean 1501.320754717
field stddev 7.0813231730276
field min 1500
field max 1550
field sum 79570
field sqrsum 119462700
attr interpolationmode none
attr title "transmitting packet byte length, histogram"
attr unit bytes
bin	-inf	0
bin	1487	0
bin	1488	0
bin	1489	0
bin	1490	0
bin	1491	0
bin	1492	0
bin	1493	0
bin	1494	0
bin	1495	0
bin	1496	0
bin	1497	0
bin	1498	0
bin	1499	0
bin	1500	50
bin	1501	0
bin	1502	0
bin	1503	0
bin	1504	0
bin	1505	0
bin	1506	0
bin	1507	0
bin	1508	0
bin	1509	0
bin	1510	2
bin	1511	0
bin	1512	0
bin	1513	0
bin	1514	0
bin	1515	0
bin	1516	0
bin	1517	0
bin	1518	0
bin	1519	0
bin	1520	0
bin	1521	0
bin	1522	0
bin	1523	0
bin	1524	0
bin	1525	0
bin	1526	0
bin	1527	0
bin	1528	0
bin	1529	0
bin	1530	0
bin	1531	0
bin	1532	0
bin	1533	0
bin	1534	0
bin	1535	0
bin	1536	0
bin	1537	0
bin	1538	0
bin	1539	0
bin	1540	0
bin	1541	0
bin	1542	0
bin	1543	0
bin	1544	0
bin	1545	0
bin	1546	0
bin	1547	0
bin	1548	0
bin	1549	0
bin	1550	1
bin	1551	0
bin	1552	0
bin	1553	0
bin	1554	0
bin	1555	0
bin	1556	0
bin	1557	0
bin	1558	0
bin	1559	0
bin	1560	0
bin	1561	0
bin	1562	0
bin	1563	0
scalar Net5.rte[2].queue[2] busy:timeavg 0.0022753338156322
attr interpolationmode sample-hold
attr title "server busy state, timeavg"
scalar Net5.rte[2].queue[2] qlen:timeavg 0.0010294334216852
attr interpolationmode sample-hold
attr title "queue length, timeavg"
scalar Net5.rte[2].queue[2] qlen:max 3
attr interpolationmode sample-hold
attr title "queue length, max"
scalar Net5.rte[2].queue[2] drop:count 0
attr interpolationmode none
attr title "dropped packet byte length, count"
attr unit bytes
scalar Net5.rte[2].queue[2] drop:sum 0
attr interpolationmode none
attr title "dropped packet byte length, sum"
attr unit bytes
scalar Net5.rte[2].queue[3] rxBytes:count 28
attr interpolationmode none
attr title "received packet byte length, count"
attr unit bytes
scalar Net5.rte[2].queue[3] rxBytes:sum 42030
attr interpolationmode none
attr title "received packet byte length, sum"
attr unit bytes
statistic Net5.rte[2].queue[3] rxBytes:histogram
field count 28
field mean 1501.0714285714
field stddev 4.1626965212566
field min 1500
field max 1520
field sum 42030
field sqrsum 63090500
attr interpolationmode none
attr title "received packet byte length, histogram"
attr unit bytes
bin	-inf	0
bin	1495	0
bin	1496	0
bin	1497	0
bin	1498	0
bin	1499	0
bin	1500	26
bin	1501	0
bin	1502	0
bin	1503	0
bin	1504	0
bin	1505	0
bin	1506	0
bin	1507	0
bin	1508	0
bin	1509	0
bin	1510	1
bin	1511	0
bin	1512	0
bin	1513	0
bin	1514	0
bin	1515	0
bin	1516	0
bin	1517	0
bin	1518	0
bin	1519	0
bin	1520	1
bin	1521	0
bin	1522	0
bin	1523	0
bin	1524	0
bin	1525	0
scalar Net5.rte[2].queue[3] txBytes:count 36
attr interpolationmode none
attr title "transmitting packet byte length, count"
attr unit bytes
scalar Net5.rte[2].queue[3] txBytes:sum 54000
attr interpolationmode none
attr title "transmitting packet byte length, sum"
attr unit bytes
statistic Net5.rte[2].queue[3] txBytes:histogram
field count 36
field mean 1500
field stddev 0
field min 1500
field max 1500
field sum 54000
field sqrsum 81000000
attr interpolationmode none
attr title "transmitting packet byte length, histogram"
attr unit bytes
bin	-inf	0
bin	1499	0
bin	1500	36
bin	1501	0
scalar Net5.rte[2].queue[3] busy:timeavg 0.0015441501325278
attr interpolationmode sample-hold
attr title "server busy state, timeavg"
scalar Net5.rte[2].queue[3] qlen:timeavg 0
attr interpolationmode sample-hold
attr title "queue length, timeavg"
scalar Net5.rte[2].queue[3] qlen:max 0
attr interpolationmode sample-hold
attr title "queue length, max"
scalar Net5.rte[2].queue[3] drop:count 0
attr interpolationmode none
attr title "dropped packet byte length, count"
attr unit bytes
scalar Net5.rte[2].queue[3] drop:sum 0
attr interpolationmode none
attr title "dropped packet byte length, sum"
attr unit bytes
scalar Net5.rte[3].app hopCount:mean 1.7692307692308
attr interpolationmode none
attr title "hop count of arrived packets, mean"
scalar Net5.rte[3].app hopCount:max 3
attr interpolationmode none
attr title "hop count of arrived packets, max"
scalar Net5.rte[3].app endToEndDelay:mean 0.18282136752254
attr interpolationmode none
attr title "end-to-end delay of arrived packets, mean"
attr unit s
scalar Net5.rte[3].app endToEndDelay:max 0.315000000003
attr interpolationmode none
attr title "end-to-end delay of arrived packets, max"
attr unit s
statistic Net5.rte[3].routing outputIf:histogram
field count 389
field mean 0.79948586118252
field stddev 1.2583329435549
field min -1
field max 3
field sum 311
field sqrsum 863
attr interpolationmode none
attr title "output interface for each routed packet, histogram"
bin	-inf	0
bin	-2	0
bin	-1	78
bin	0	78
bin	1	119
bin	2	72
bin	3	42
bin	4	0
scalar Net5.rte[3].routing drop:count 0
attr interpolationmode none
attr title "dropped packet byte length, count"
attr unit bytes
scalar Net5.rte[3].routing drop:sum 0
attr interpolationmode none
attr title "dropped packet byte length, sum"
attr unit bytes
scalar Net5.rte[3].queue[0] rxBytes:count 66
attr interpolationmode none
attr title "received packet byte length, count"
attr unit bytes
scalar Net5.rte[3].queue[0] rxBytes:sum 99070
attr interpolationmode none
attr title "received packet byte length, sum"
attr unit bytes
statistic Net5.rte[3].queue[0] rxBytes:histogram
field count 66
field mean 1501.0606060606
field stddev 5.5826070222961
field min 1500
field max 1540
field sum 99070
field sqrsum 148712100
attr interpolationmode none
attr title "received packet byte length, histogram"
attr unit bytes
bin	-inf	0
bin	1490	0
bin	1491	0
bin	1492	0
bin	1493	0
bin	1494	0
bin	1495	0
bin	1496	0
bin	1497	0
bin	1498	0
bin	1499	0
bin	1500	63
bin	1501	0
bin	1502	0
bin	1503	0
bin	1504	0
bin	1505	0
bin	1506	0
bin	1507	0
bin	1508	0
bin	1509	0
bin	1510	1
bin	1511	0
bin	1512	0
bin	1513	0
bin	1514	0
bin	1515	0
bin	1516	0
bin	1517	0
bin	1518	0
bin	1519	0
bin	1520	1
bin	1521	0
bin	1522	0
bin	1523	0
bin	1524	0
bin	1525	0
bin	1526	0
bin	1527	0
bin	1528	0
bin	1529	0
bin	1530	0
bin	1531	0
bin	1532	0
bin	1533	0
bin	1534	0
bin	1535	0
bin	1536	0
bin	1537	0
bin	1538	0
bin	1539	0
bin	1540	1
bin	1541	0
bin	1542	0
bin	1543	0
bin	1544	0
bin	1545	0
bin	1546	0
bin	1547	0
bin	1548	0
bin	1549	0
bin	1550	0
scalar Net5.rte[3].queue[0] txBytes:count 78
attr interpolationmode none
attr title "transmitting packet byte length, count"
attr unit bytes
scalar Net5.rte[3].queue[0] txBytes:sum 117130
attr interpolationmode none
attr title "transmitting packet byte length, sum"
attr unit bytes
statistic Net5.rte[3].queue[0] txBytes:histogram
field count 78
field mean 1501.6666666667
field stddev 11.097755320798
field min 1500
field max 1590
field sum 117130
field sqrsum 175899700
attr interpolationmode none
attr title "transmitting packet byte length, histogram"
attr unit bytes
bin	-inf	0
bin	1476	0
bin	1478	0
bin	1480	0
bin	1482	0
bin	1484	0
bin	1486	0
bin	1488	0
bin	1490	0
bin	1492	0
bin	1494	0
bin	1496	0
bin	1498	0
bin	1500	76
bin	1502	0
bin	1504	0
bin	1506	0
bin	1508	0
bin	1510	0
bin	1512	0
bin	1514	0
bin	1516	0
bin	1518	0
bin	1520	0
bin	1522	0
bin	1524	0
bin	1526	0
bin	1528	0
bin	1530	0
bin	1532	0
bin	1534	0
bin	1536	0
bin	1538	0
bin	1540	1
bin	1542	0
bin	1544	0
bin	1546	0
bin	1548	0
bin	1550	0
bin	1552	0
bin	1554	0
bin	1556	0
bin	1558	0
bin	1560	0
bin	1562	0
bin	1564	0
bin	1566	0
bin	1568	0
bin	1570	0
bin	1572	0
bin	1574	0
bin	1576	0
bin	1578	0
bin	1580	0
bin	1582	0
bin	1584	0
bin	1586	0
bin	1588	0
bin	1590	1
bin	1592	0
bin	1594	0
bin	1596	0
bin	1598	0
bin	1600	0
bin	1602	0
bin	1604	0
bin	1606	0
bin	1608	0
bin	1610	0
bin	1612	0
bin	1614	0
scalar Net5.rte[3].queue[0] busy:timeavg 0.003349376018932
attr interpolationmode sample-hold
attr title "server busy state, timeavg"
scalar Net5.rte[3].queue[0] qlen:timeavg 8.5786118473768e-005
attr interpolationmode sample-hold
attr title "queue length, timeavg"
scalar Net5.rte[3].queue[0] qlen:max 1
attr interpolationmode sample-hold
attr title "queue length, max"
scalar Net5.rte[3].queue[0] drop:count 0
attr interpolationmode none
attr title "dropped packet byte length, count"
attr unit bytes
scalar Net5.rte[3].queue[0] drop:sum 0
attr interpolationmode none
attr title "dropped packet byte length, sum"
attr unit bytes
scalar Net5.rte[3].queue[1] rxBytes:count 155
attr interpolationmode none
attr title "received packet byte length, count"
attr unit bytes
scalar Net5.rte[3].queue[1] rxBytes:sum 232610
attr interpolationmode none
attr title "received packet byte length, sum"
attr unit bytes
statistic Net5.rte[3].queue[1] rxBytes:histogram
field count 155
field mean 1500.7096774194
field stddev 4.5740200028189
field min 1500
field max 1540
field sum 232610
field sqrsum 349083300
attr interpolationmode none
attr title "received packet byte length, histogram"
attr unit bytes
bin	-inf	0
bin	1495	0
bin	1496	0
bin	1497	0
bin	1498	0
bin	1499	0
bin	1500	151
bin	1501	0
bin	1502	0
bin	1503	0
bin	1504	0
bin	1505	0
bin	1506	0
bin	1507	0
bin	1508	0
bin	1509	0
bin	1510	0
bin	1511	0
bin	1512	0
bin	1513	0
bin	1514	0
bin	1515	0
bin	1516	0
bin	1517	0
bin	1518	0
bin	1519	0
bin	1520	2
bin	1521	0
bin	1522	0
bin	1523	0
bin	1524	0
bin	1525	0
bin	1526	0
bin	1527	0
bin	1528	0
bin	1529	0
bin	1530	1
bin	1531	0
bin	1532	0
bin	1533	0
bin	1534	0
bin	1535	0
bin	1536	0
bin	1537	0
bin	1538	0
bin	1539	0
bin	1540	1
bin	1541	0
scalar Net5.rte[3].queue[1] txBytes:count 119
attr interpolationmode none
attr title "transmitting packet byte length, count"
attr unit bytes
scalar Net5.rte[3].queue[1] txBytes:sum 178760
attr interpolationmode none
attr title "transmitting packet byte length, sum"
attr unit bytes
statistic Net5.rte[3].queue[1] txBytes:histogram
field count 119
field mean 1502.1848739496
field stddev 10.181377472119
field min 1500
field max 1570
field sum 178760
field sqrsum 268542800
attr interpolationmode none
attr title "transmitting packet byte length, histogram"
attr unit bytes
bin	-inf	0
bin	1482	0
bin	1484	0
bin	1486	0
bin	1488	0
bin	1490	0
bin	1492	0
bin	1494	0
bin	1496	0
bin	1498	0
bin	1500	112
bin	1502	0
bin	1504	0
bin	1506	0
bin	1508	0
bin	1510	1
bin	1512	0
bin	1514	0
bin	1516	0
bin	1518	0
bin	1520	2
bin	1522	0
bin	1524	0
bin	1526	0
bin	1528	0
bin	1530	1
bin	1532	0
bin	1534	0
bin	1536	0
bin	1538	0
bin	1540	0
bin	1542	0
bin	1544	0
bin	1546	0
bin	1548	0
bin	1550	1
bin	1552	0
bin	1554	0
bin	1556	0
bin	1558	0
bin	1560	1
bin	1562	0
bin	1564	0
bin	1566	0
bin	1568	0
bin	1570	1
bin	1572	0
bin	1574	0
bin	1576	0
bin	1578	0
bin	1580	0
bin	1582	0
bin	1584	0
bin	1586	0
bin	1588	0
scalar Net5.rte[3].queue[1] busy:timeavg 0.0051117088460478
attr interpolationmode sample-hold
attr title "server busy state, timeavg"
scalar Net5.rte[3].queue[1] qlen:timeavg 0.0012867917771065
attr interpolationmode sample-hold
attr title "queue length, timeavg"
scalar Net5.rte[3].queue[1] qlen:max 3
attr interpolationmode sample-hold
attr title "queue length, max"
scalar Net5.rte[3].queue[1] drop:count 0
attr interpolationmode none
attr title "dropped packet byte length, count"
attr unit bytes
scalar Net5.rte[3].queue[1] drop:sum 0
attr interpolationmode none
attr title "dropped packet byte length, sum"
attr unit bytes
scalar Net5.rte[3].queue[2] rxBytes:count 74
attr interpolationmode none
attr title "received packet byte length, count"
attr unit bytes
scalar Net5.rte[3].queue[2] rxBytes:sum 111220
attr interpolationmode none
attr title "received packet byte length, sum"
attr unit bytes
statistic Net5.rte[3].queue[2] rxBytes:histogram
field count 74
field mean 1502.972972973
field stddev 14.779635167957
field min 1500
field max 1590
field sum 111220
field sqrsum 167176600
attr interpolationmode none
attr title "received packet byte length, histogram"
attr unit bytes
bin	-inf	0
bin	1476	0
bin	1478	0
bin	1480	0
bin	1482	0
bin	1484	0
bin	1486	0
bin	1488	0
bin	1490	0
bin	1492	0
bin	1494	0
bin	1496	0
bin	1498	0
bin	1500	71
bin	1502	0
bin	1504	0
bin	1506	0
bin	1508	0
bin	1510	0
bin	1512	0
bin	1514	0
bin	1516	0
bin	1518	0
bin	1520	0
bin	1522	0
bin	1524	0
bin	1526	0
bin	1528	0
bin	1530	0
bin	1532	0
bin	1534	0
bin	1536	0
bin	1538	0
bin	1540	0
bin	1542	0
bin	1544	0
bin	1546	0
bin	1548	0
bin	1550	0
bin	1552	0
bin	1554	0
bin	1556	0
bin	1558	0
bin	1560	1
bin	1562	0
bin	1564	0
bin	1566	0
bin	1568	0
bin	1570	1
bin	1572	0
bin	1574	0
bin	1576	0
bin	1578	0
bin	1580	0
bin	1582	0
bin	1584	0
bin	1586	0
bin	1588	0
bin	1590	1
bin	1592	0
bin	1594	0
bin	1596	0
bin	1598	0
bin	1600	0
bin	1602	0
bin	1604	0
bin	1606	0
bin	1608	0
bin	1610	0
bin	1612	0
bin	1614	0
scalar Net5.rte[3].queue[2] txBytes:count 72
attr interpolationmode none
attr title "transmitting packet byte length, count"
attr unit bytes
scalar Net5.rte[3].queue[2] txBytes:sum 108060
attr interpolationmode none
attr title "transmitting packet byte length, sum"
attr unit bytes
statistic Net5.rte[3].queue[2] txBytes:histogram
field count 72
field mean 1500.8333333333
field stddev 5.2406859028561
field min 1500
field max 1540
field sum 108060
field sqrsum 162182000
attr interpolationmode none
attr title "transmitting packet byte length, histogram"
attr unit bytes
bin	-inf	0
bin	1490	0
bin	1491	0
bin	1492	0
bin	1493	0
bin	1494	0
bin	1495	0
bin	1496	0
bin	1497	0
bin	1498	0
bin	1499	0
bin	1500	70
bin	1501	0
bin	1502	0
bin	1503	0
bin	1504	0
bin	1505	0
bin	1506	0
bin	1507	0
bin	1508	0
bin	1509	0
bin	1510	0
bin	1511	0
bin	1512	0
bin	1513	0
bin	1514	0
bin	1515	0
bin	1516	0
bin	1517	0
bin	1518	0
bin	1519	0
bin	1520	1
bin	1521	0
bin	1522	0
bin	1523	0
bin	1524	0
bin	1525	0
bin	1526	0
bin	1527	0
bin	1528	0
bin	1529	0
bin	1530	0
bin	1531	0
bin	1532	0
bin	1533	0
bin	1534	0
bin	1535	0
bin	1536	0
bin	1537	0
bin	1538	0
bin	1539	0
bin	1540	1
bin	1541	0
bin	1542	0
bin	1543	0
bin	1544	0
bin	1545	0
bin	1546	0
bin	1547	0
bin	1548	0
bin	1549	0
bin	1550	0
scalar Net5.rte[3].queue[2] busy:timeavg 0.0030900159874076
attr interpolationmode sample-hold
attr title "server busy state, timeavg"
scalar Net5.rte[3].queue[2] qlen:timeavg 0.00077207506626392
attr interpolationmode sample-hold
attr title "queue length, timeavg"
scalar Net5.rte[3].queue[2] qlen:max 3
attr interpolationmode sample-hold
attr title "queue length, max"
scalar Net5.rte[3].queue[2] drop:count 0
attr interpolationmode none
attr title "dropped packet byte length, count"
attr unit bytes
scalar Net5.rte[3].queue[2] drop:sum 0
attr interpolationmode none
attr title "dropped packet byte length, sum"
attr unit bytes
scalar Net5.rte[3].queue[3] rxBytes:count 38
attr interpolationmode none
attr title "received packet byte length, count"
attr unit bytes
scalar Net5.rte[3].queue[3] rxBytes:sum 57050
attr interpolationmode none
attr title "received packet byte length, sum"
attr unit bytes
statistic Net5.rte[3].queue[3] rxBytes:histogram
field count 38
field mean 1501.3157894737
field stddev 8.1110710565407
field min 1500
field max 1550
field sum 57050
field sqrsum 85652500
attr interpolationmode none
attr title "received packet byte length, histogram"
attr unit bytes
bin	-inf	0
bin	1487	0
bin	1488	0
bin	1489	0
bin	1490	0
bin	1491	0
bin	1492	0
bin	1493	0
bin	1494	0
bin	1495	0
bin	1496	0
bin	1497	0
bin	1498	0
bin	1499	0
bin	1500	37
bin	1501	0
bin	1502	0
bin	1503	0
bin	1504	0
bin	1505	0
bin	1506	0
bin	1507	0
bin	1508	0
bin	1509	0
bin	1510	0
bin	1511	0
bin	1512	0
bin	1513	0
bin	1514	0
bin	1515	0
bin	1516	0
bin	1517	0
bin	1518	0
bin	1519	0
bin	1520	0
bin	1521	0
bin	1522	0
bin	1523	0
bin	1524	0
bin	1525	0
bin	1526	0
bin	1527	0
bin	1528	0
bin	1529	0
bin	1530	0
bin	1531	0
bin	1532	0
bin	1533	0
bin	1534	0
bin	1535	0
bin	1536	0
bin	1537	0
bin	1538	0
bin	1539	0
bin	1540	0
bin	1541	0
bin	1542	0
bin	1543	0
bin	1544	0
bin	1545	0
bin	1546	0
bin	1547	0
bin	1548	0
bin	1549	0
bin	1550	1
bin	1551	0
bin	1552	0
bin	1553	0
bin	1554	0
bin	1555	0
bin	1556	0
bin	1557	0
bin	1558	0
bin	1559	0
bin	1560	0
bin	1561	0
bin	1562	0
bin	1563	0
scalar Net5.rte[3].queue[3] txBytes:count 42
attr interpolationmode none
attr title "transmitting packet byte length, count"
attr unit bytes
scalar Net5.rte[3].queue[3] txBytes:sum 63070
attr interpolationmode none
attr title "transmitting packet byte length, sum"
attr unit bytes
statistic Net5.rte[3].queue[3] txBytes:histogram
field count 42
field mean 1501.6666666667
field stddev 7.624308578533
field min 1500
field max 1540
field sum 63070
field sqrsum 94712500
attr interpolationmode none
attr title "transmitting packet byte length, histogram"
attr unit bytes
bin	-inf	0
bin	1490	0
bin	1491	0
bin	1492	0
bin	1493	0
bin	1494	0
bin	1495	0
bin	1496	0
bin	1497	0
bin	1498	0
bin	1499	0
bin	1500	40
bin	1501	0
bin	1502	0
bin	1503	0
bin	1504	0
bin	1505	0
bin	1506	0
bin	1507	0
bin	1508	0
bin	1509	0
bin	1510	0
bin	1511	0
bin	1512	0
bin	1513	0
bin	1514	0
bin	1515	0
bin	1516	0
bin	1517	0
bin	1518	0
bin	1519	0
bin	1520	0
bin	1521	0
bin	1522	0
bin	1523	0
bin	1524	0
bin	1525	0
bin	1526	0
bin	1527	0
bin	1528	0
bin	1529	0
bin	1530	1
bin	1531	0
bin	1532	0
bin	1533	0
bin	1534	0
bin	1535	0
bin	1536	0
bin	1537	0
bin	1538	0
bin	1539	0
bin	1540	1
bin	1541	0
bin	1542	0
bin	1543	0
bin	1544	0
bin	1545	0
bin	1546	0
bin	1547	0
bin	1548	0
bin	1549	0
bin	1550	0
scalar Net5.rte[3].queue[3] busy:timeavg 0.0018035101640264
attr interpolationmode sample-hold
attr title "server busy state, timeavg"
scalar Net5.rte[3].queue[3] qlen:timeavg 0
attr interpolationmode sample-hold
attr title "queue length, timeavg"
scalar Net5.rte[3].queue[3] qlen:max 0
attr interpolationmode sample-hold
attr title "queue length, max"
scalar Net5.rte[3].queue[3] drop:count 0
attr interpolationmode none
attr title "dropped packet byte length, count"
attr unit bytes
scalar Net5.rte[3].queue[3] drop:sum 0
attr interpolationmode none
attr title "dropped packet byte length, sum"
attr unit bytes
scalar Net5.rte[4].app hopCount:mean 1.7831325301205
attr interpolationmode none
attr title "hop count of arrived packets, mean"
scalar Net5.rte[4].app hopCount:max 3
attr interpolationmode none
attr title "hop count of arrived packets, max"
scalar Net5.rte[4].app endToEndDelay:mean 0.184602945115
attr interpolationmode none
attr title "end-to-end delay of arrived packets, mean"
attr unit s
scalar Net5.rte[4].app endToEndDelay:max 0.311666666669
attr interpolationmode none
attr title "end-to-end delay of arrived packets, max"
attr unit s
statistic Net5.rte[4].routing outputIf:histogram
field count 318
field mean 0.76415094339623
field stddev 1.2449409558101
field min -1
field max 2
field sum 243
field sqrsum 677
attr interpolationmode none
attr title "output interface for each routed packet, histogram"
bin	-inf	0
bin	-2	0
bin	-1	83
bin	0	43
bin	1	58
bin	2	134
bin	3	0
scalar Net5.rte[4].routing drop:count 0
attr interpolationmode none
attr title "dropped packet byte length, count"
attr unit bytes
scalar Net5.rte[4].routing drop:sum 0
attr interpolationmode none
attr title "dropped packet byte length, sum"
attr unit bytes
scalar Net5.rte[4].queue[0] rxBytes:count 64
attr interpolationmode none
attr title "received packet byte length, count"
attr unit bytes
scalar Net5.rte[4].queue[0] rxBytes:sum 96210
attr interpolationmode none
attr title "received packet byte length, sum"
attr unit bytes
statistic Net5.rte[4].queue[0] rxBytes:histogram
field count 64
field mean 1503.28125
field stddev 14.370901762253
field min 1500
field max 1590
field sum 96210
field sqrsum 144643700
attr interpolationmode none
attr title "received packet byte length, histogram"
attr unit bytes
bin	-inf	0
bin	1476	0
bin	1478	0
bin	1480	0
bin	1482	0
bin	1484	0
bin	1486	0
bin	1488	0
bin	1490	0
bin	1492	0
bin	1494	0
bin	1496	0
bin	1498	0
bin	1500	60
bin	1502	0
bin	1504	0
bin	1506	0
bin	1508	0
bin	1510	0
bin	1512	0
bin	1514	0
bin	1516	0
bin	1518	0
bin	1520	1
bin	1522	0
bin	1524	0
bin	1526	0
bin	1528	0
bin	1530	0
bin	1532	0
bin	1534	0
bin	1536	0
bin	1538	0
bin	1540	1
bin	1542	0
bin	1544	0
bin	1546	0
bin	1548	0
bin	1550	0
bin	1552	0
bin	1554	0
bin	1556	0
bin	1558	0
bin	1560	1
bin	1562	0
bin	1564	0
bin	1566	0
bin	1568	0
bin	1570	0
bin	1572	0
bin	1574	0
bin	1576	0
bin	1578	0
bin	1580	0
bin	1582	0
bin	1584	0
bin	1586	0
bin	1588	0
bin	1590	1
bin	1592	0
bin	1594	0
bin	1596	0
bin	1598	0
bin	1600	0
bin	1602	0
bin	1604	0
bin	1606	0
bin	1608	0
bin	1610	0
bin	1612	0
bin	1614	0
scalar Net5.rte[4].queue[0] txBytes:count 43
attr interpolationmode none
attr title "transmitting packet byte length, count"
attr unit bytes
scalar Net5.rte[4].queue[0] txBytes:sum 64620
attr interpolationmode none
attr title "transmitting packet byte length, sum"
attr unit bytes
statistic Net5.rte[4].queue[0] txBytes:histogram
field count 43
field mean 1502.7906976744
field stddev 12.784957938983
field min 1500
field max 1560
field sum 64620
field sqrsum 97117200
attr interpolationmode none
attr title "transmitting packet byte length, histogram"
attr unit bytes
bin	-inf	0
bin	1485	0
bin	1486	0
bin	1487	0
bin	1488	0
bin	1489	0
bin	1490	0
bin	1491	0
bin	1492	0
bin	1493	0
bin	1494	0
bin	1495	0
bin	1496	0
bin	1497	0
bin	1498	0
bin	1499	0
bin	1500	41
bin	1501	0
bin	1502	0
bin	1503	0
bin	1504	0
bin	1505	0
bin	1506	0
bin	1507	0
bin	1508	0
bin	1509	0
bin	1510	0
bin	1511	0
bin	1512	0
bin	1513	0
bin	1514	0
bin	1515	0
bin	1516	0
bin	1517	0
bin	1518	0
bin	1519	0
bin	1520	0
bin	1521	0
bin	1522	0
bin	1523	0
bin	1524	0
bin	1525	0
bin	1526	0
bin	1527	0
bin	1528	0
bin	1529	0
bin	1530	0
bin	1531	0
bin	1532	0
bin	1533	0
bin	1534	0
bin	1535	0
bin	1536	0
bin	1537	0
bin	1538	0
bin	1539	0
bin	1540	0
bin	1541	0
bin	1542	0
bin	1543	0
bin	1544	0
bin	1545	0
bin	1546	0
bin	1547	0
bin	1548	0
bin	1549	0
bin	1550	0
bin	1551	0
bin	1552	0
bin	1553	0
bin	1554	0
bin	1555	0
bin	1556	0
bin	1557	0
bin	1558	0
bin	1559	0
bin	1560	2
bin	1561	0
bin	1562	0
bin	1563	0
bin	1564	0
bin	1565	0
bin	1566	0
bin	1567	0
bin	1568	0
bin	1569	0
bin	1570	0
bin	1571	0
bin	1572	0
bin	1573	0
bin	1574	0
bin	1575	0
scalar Net5.rte[4].queue[0] busy:timeavg 0.00184783299189
attr interpolationmode sample-hold
attr title "server busy state, timeavg"
scalar Net5.rte[4].queue[0] qlen:timeavg 0
attr interpolationmode sample-hold
attr title "queue length, timeavg"
scalar Net5.rte[4].queue[0] qlen:max 0
attr interpolationmode sample-hold
attr title "queue length, max"
scalar Net5.rte[4].queue[0] drop:count 0
attr interpolationmode none
attr title "dropped packet byte length, count"
attr unit bytes
scalar Net5.rte[4].queue[0] drop:sum 0
attr interpolationmode none
attr title "dropped packet byte length, sum"
attr unit bytes
scalar Net5.rte[4].queue[1] rxBytes:count 51
attr interpolationmode none
attr title "received packet byte length, count"
attr unit bytes
scalar Net5.rte[4].queue[1] rxBytes:sum 76550
attr interpolationmode none
attr title "received packet byte length, sum"
attr unit bytes
statistic Net5.rte[4].queue[1] rxBytes:histogram
field count 51
field mean 1500.9803921569
field stddev 5.0019603999992
field min 1500
field max 1530
field sum 76550
field sqrsum 114901300
attr interpolationmode none
attr title "received packet byte length, histogram"
attr unit bytes
bin	-inf	0
bin	1492	0
bin	1493	0
bin	1494	0
bin	1495	0
bin	1496	0
bin	1497	0
bin	1498	0
bin	1499	0
bin	1500	49
bin	1501	0
bin	1502	0
bin	1503	0
bin	1504	0
bin	1505	0
bin	1506	0
bin	1507	0
bin	1508	0
bin	1509	0
bin	1510	0
bin	1511	0
bin	1512	0
bin	1513	0
bin	1514	0
bin	1515	0
bin	1516	0
bin	1517	0
bin	1518	0
bin	1519	0
bin	1520	1
bin	1521	0
bin	1522	0
bin	1523	0
bin	1524	0
bin	1525	0
bin	1526	0
bin	1527	0
bin	1528	0
bin	1529	0
bin	1530	1
bin	1531	0
bin	1532	0
bin	1533	0
bin	1534	0
bin	1535	0
bin	1536	0
bin	1537	0
bin	1538	0
scalar Net5.rte[4].queue[1] txBytes:count 58
attr interpolationmode none
attr title "transmitting packet byte length, count"
attr unit bytes
scalar Net5.rte[4].queue[1] txBytes:sum 87020
attr interpolationmode none
attr title "transmitting packet byte length, sum"
attr unit bytes
statistic Net5.rte[4].queue[1] txBytes:histogram
field count 58
field mean 1500.3448275862
field stddev 1.8405922400796
field min 1500
field max 1510
field sum 87020
field sqrsum 130560200
attr interpolationmode none
attr title "transmitting packet byte length, histogram"
attr unit bytes
bin	-inf	0
bin	1497	0
bin	1498	0
bin	1499	0
bin	1500	56
bin	1501	0
bin	1502	0
bin	1503	0
bin	1504	0
bin	1505	0
bin	1506	0
bin	1507	0
bin	1508	0
bin	1509	0
bin	1510	2
bin	1511	0
bin	1512	0
bin	1513	0
scalar Net5.rte[4].queue[1] busy:timeavg 0.0024883693431899
attr interpolationmode sample-hold
attr title "server busy state, timeavg"
scalar Net5.rte[4].queue[1] qlen:timeavg 0.0010294334216852
attr interpolationmode sample-hold
attr title "queue length, timeavg"
scalar Net5.rte[4].queue[1] qlen:max 2
attr interpolationmode sample-hold
attr title "queue length, max"
scalar Net5.rte[4].queue[1] drop:count 0
attr interpolationmode none
attr title "dropped packet byte length, count"
attr unit bytes
scalar Net5.rte[4].queue[1] drop:sum 0
attr interpolationmode none
attr title "dropped packet byte length, sum"
attr unit bytes
scalar Net5.rte[4].queue[2] rxBytes:count 112
attr interpolationmode none
attr title "received packet byte length, count"
attr unit bytes
scalar Net5.rte[4].queue[2] rxBytes:sum 168230
attr interpolationmode none
attr title "received packet byte length, sum"
attr unit bytes
statistic Net5.rte[4].queue[2] rxBytes:histogram
field count 112
field mean 1502.0535714286
field stddev 9.5990233040287
field min 1500
field max 1570
field sum 168230
field sqrsum 252700700
attr interpolationmode none
attr title "received packet byte length, histogram"
attr unit bytes
bin	-inf	0
bin	1482	0
bin	1484	0
bin	1486	0
bin	1488	0
bin	1490	0
bin	1492	0
bin	1494	0
bin	1496	0
bin	1498	0
bin	1500	105
bin	1502	0
bin	1504	0
bin	1506	0
bin	1508	0
bin	1510	1
bin	1512	0
bin	1514	0
bin	1516	0
bin	1518	0
bin	1520	3
bin	1522	0
bin	1524	0
bin	1526	0
bin	1528	0
bin	1530	1
bin	1532	0
bin	1534	0
bin	1536	0
bin	1538	0
bin	1540	0
bin	1542	0
bin	1544	0
bin	1546	0
bin	1548	0
bin	1550	0
bin	1552	0
bin	1554	0
bin	1556	0
bin	1558	0
bin	1560	1
bin	1562	0
bin	1564	0
bin	1566	0
bin	1568	0
bin	1570	1
bin	1572	0
bin	1574	0
bin	1576	0
bin	1578	0
bin	1580	0
bin	1582	0
bin	1584	0
bin	1586	0
bin	1588	0
scalar Net5.rte[4].queue[2] txBytes:count 134
attr interpolationmode none
attr title "transmitting packet byte length, count"
attr unit bytes
scalar Net5.rte[4].queue[2] txBytes:sum 201330
attr interpolationmode none
attr title "transmitting packet byte length, sum"
attr unit bytes
statistic Net5.rte[4].queue[2] txBytes:histogram
field count 134
field mean 1502.4626865672
field stddev 11.979717644134
field min 1500
field max 1590
field sum 201330
field sqrsum 302509900
attr interpolationmode none
attr title "transmitting packet byte length, histogram"
attr unit bytes
bin	-inf	0
bin	1476	0
bin	1478	0
bin	1480	0
bin	1482	0
bin	1484	0
bin	1486	0
bin	1488	0
bin	1490	0
bin	1492	0
bin	1494	0
bin	1496	0
bin	1498	0
bin	1500	127
bin	1502	0
bin	1504	0
bin	1506	0
bin	1508	0
bin	1510	0
bin	1512	0
bin	1514	0
bin	1516	0
bin	1518	0
bin	1520	2
bin	1522	0
bin	1524	0
bin	1526	0
bin	1528	0
bin	1530	1
bin	1532	0
bin	1534	0
bin	1536	0
bin	1538	0
bin	1540	1
bin	1542	0
bin	1544	0
bin	1546	0
bin	1548	0
bin	1550	0
bin	1552	0
bin	1554	0
bin	1556	0
bin	1558	0
bin	1560	1
bin	1562	0
bin	1564	0
bin	1566	0
bin	1568	0
bin	1570	1
bin	1572	0
bin	1574	0
bin	1576	0
bin	1578	0
bin	1580	0
bin	1582	0
bin	1584	0
bin	1586	0
bin	1588	0
bin	1590	1
bin	1592	0
bin	1594	0
bin	1596	0
bin	1598	0
bin	1600	0
bin	1602	0
bin	1604	0
bin	1606	0
bin	1608	0
bin	1610	0
bin	1612	0
bin	1614	0
scalar Net5.rte[4].queue[2] busy:timeavg 0.0057571064107041
attr interpolationmode sample-hold
attr title "server busy state, timeavg"
scalar Net5.rte[4].queue[2] qlen:timeavg 0.0052329532268999
attr interpolationmode sample-hold
attr title "queue length, timeavg"
scalar Net5.rte[4].queue[2] qlen:max 5
attr interpolationmode sample-hold
attr title "queue length, max"
scalar Net5.rte[4].queue[2] drop:count 0
attr interpolationmode none
attr title "dropped packet byte length, count"
attr unit bytes
scalar Net5.rte[4].queue[2] drop:sum 0
attr interpolationmode none
attr title "dropped packet byte length, sum"
attr unit bytes
scalar Net5.rte[5].app hopCount:mean 1.6172839506173
attr interpolationmode none
attr title "hop count of arrived packets, mean"
scalar Net5.rte[5].app hopCount:max 2
attr interpolationmode none
attr title "hop count of arrived packets, max"
scalar Net5.rte[5].app endToEndDelay:mean 0.16874814814954
attr interpolationmode none
attr title "end-to-end delay of arrived packets, mean"
attr unit s
scalar Net5.rte[5].app endToEndDelay:max 0.215000000003
attr interpolationmode none
attr title "end-to-end delay of arrived packets, max"
attr unit s
statistic Net5.rte[5].routing outputIf:histogram
field count 513
field mean 0.87329434697856
field stddev 1.3234396270302
field min -1
field max 3
field sum 448
field sqrsum 1288
attr interpolationmode none
attr title "output interface for each routed packet, histogram"
bin	-inf	0
bin	-2	0
bin	-1	81
bin	0	155
bin	1	112
bin	2	78
bin	3	87
bin	4	0
scalar Net5.rte[5].routing drop:count 0
attr interpolationmode none
attr title "dropped packet byte length, count"
attr unit bytes
scalar Net5.rte[5].routing drop:sum 0
attr interpolationmode none
attr title "dropped packet byte length, sum"
attr unit bytes
scalar Net5.rte[5].queue[0] rxBytes:count 119
attr interpolationmode none
attr title "received packet byte length, count"
attr unit bytes
scalar Net5.rte[5].queue[0] rxBytes:sum 178760
attr interpolationmode none
attr title "received packet byte length, sum"
attr unit bytes
statistic Net5.rte[5].queue[0] rxBytes:histogram
field count 119
field mean 1502.1848739496
field stddev 10.181377472119
field min 1500
field max 1570
field sum 178760
field sqrsum 268542800
attr interpolationmode none
attr title "received packet byte length, histogram"
attr unit bytes
bin	-inf	0
bin	1482	0
bin	1484	0
bin	1486	0
bin	1488	0
bin	1490	0
bin	1492	0
bin	1494	0
bin	1496	0
bin	1498	0
bin	1500	112
bin	1502	0
bin	1504	0
bin	1506	0
bin	1508	0
bin	1510	1
bin	1512	0
bin	1514	0
bin	1516	0
bin	1518	0
bin	1520	2
bin	1522	0
bin	1524	0
bin	1526	0
bin	1528	0
bin	1530	1
bin	1532	0
bin	1534	0
bin	1536	0
bin	1538	0
bin	1540	0
bin	1542	0
bin	1544	0
bin	1546	0
bin	1548	0
bin	1550	1
bin	1552	0
bin	1554	0
bin	1556	0
bin	1558	0
bin	1560	1
bin	1562	0
bin	1564	0
bin	1566	0
bin	1568	0
bin	1570	1
bin	1572	0
bin	1574	0
bin	1576	0
bin	1578	0
bin	1580	0
bin	1582	0
bin	1584	0
bin	1586	0
bin	1588	0
scalar Net5.rte[5].queue[0] txBytes:count 155
attr interpolationmode none
attr title "transmitting packet byte length, count"
attr unit bytes
scalar Net5.rte[5].queue[0] txBytes:sum 232610
attr interpolationmode none
attr title "transmitting packet byte length, sum"
attr unit bytes
statistic Net5.rte[5].queue[0] txBytes:histogram
field count 155
field mean 1500.7096774194
field stddev 4.5740200028189
field min 1500
field max 1540
field sum 232610
field sqrsum 349083300
attr interpolationmode none
attr title "transmitting packet byte length, histogram"
attr unit bytes
bin	-inf	0
bin	1495	0
bin	1496	0
bin	1497	0
bin	1498	0
bin	1499	0
bin	1500	151
bin	1501	0
bin	1502	0
bin	1503	0
bin	1504	0
bin	1505	0
bin	1506	0
bin	1507	0
bin	1508	0
bin	1509	0
bin	1510	0
bin	1511	0
bin	1512	0
bin	1513	0
bin	1514	0
bin	1515	0
bin	1516	0
bin	1517	0
bin	1518	0
bin	1519	0
bin	1520	2
bin	1521	0
bin	1522	0
bin	1523	0
bin	1524	0
bin	1525	0
bin	1526	0
bin	1527	0
bin	1528	0
bin	1529	0
bin	1530	1
bin	1531	0
bin	1532	0
bin	1533	0
bin	1534	0
bin	1535	0
bin	1536	0
bin	1537	0
bin	1538	0
bin	1539	0
bin	1540	1
bin	1541	0
scalar Net5.rte[5].queue[0] busy:timeavg 0.0066515696726957
attr interpolationmode sample-hold
attr title "server busy state, timeavg"
scalar Net5.rte[5].queue[0] qlen:timeavg 0.002230439080318
attr interpolationmode sample-hold
attr title "queue length, timeavg"
scalar Net5.rte[5].queue[0] qlen:max 3
attr interpolationmode sample-hold
attr title "queue length, max"
scalar Net5.rte[5].queue[0] drop:count 0
attr interpolationmode none
attr title "dropped packet byte length, count"
attr unit bytes
scalar Net5.rte[5].queue[0] drop:sum 0
attr interpolationmode none
attr title "dropped packet byte length, sum"
attr unit bytes
scalar Net5.rte[5].queue[1] rxBytes:count 134
attr interpolationmode none
attr title "received packet byte length, count"
attr unit bytes
scalar Net5.rte[5].queue[1] rxBytes:sum 201330
attr interpolationmode none
attr title "received packet byte length, sum"
attr unit bytes
statistic Net5.rte[5].queue[1] rxBytes:histogram
field count 134
field mean 1502.4626865672
field stddev 11.979717644134
field min 1500
field max 1590
field sum 201330
field sqrsum 302509900
attr interpolationmode none
attr title "received packet byte length, histogram"
attr unit bytes
bin	-inf	0
bin	1476	0
bin	1478	0
bin	1480	0
bin	1482	0
bin	1484	0
bin	1486	0
bin	1488	0
bin	1490	0
bin	1492	0
bin	1494	0
bin	1496	0
bin	1498	0
bin	1500	127
bin	1502	0
bin	1504	0
bin	1506	0
bin	1508	0
bin	1510	0
bin	1512	0
bin	1514	0
bin	1516	0
bin	1518	0
bin	1520	2
bin	1522	0
bin	1524	0
bin	1526	0
bin	1528	0
bin	1530	1
bin	1532	0
bin	1534	0
bin	1536	0
bin	1538	0
bin	1540	1
bin	1542	0
bin	1544	0
bin	1546	0
bin	1548	0
bin	1550	0
bin	1552	0
bin	1554	0
bin	1556	0
bin	1558	0
bin	1560	1
bin	1562	0
bin	1564	0
bin	1566	0
bin	1568	0
bin	1570	1
bin	1572	0
bin	1574	0
bin	1576	0
bin	1578	0
bin	1580	0
bin	1582	0
bin	1584	0
bin	1586	0
bin	1588	0
bin	1590	1
bin	1592	0
bin	1594	0
bin	1596	0
bin	1598	0
bin	1600	0
bin	1602	0
bin	1604	0
bin	1606	0
bin	1608	0
bin	1610	0
bin	1612	0
bin	1614	0
scalar Net5.rte[5].queue[1] txBytes:count 112
attr interpolationmode none
attr title "transmitting packet byte length, count"
attr unit bytes
scalar Net5.rte[5].queue[1] txBytes:sum 168230
attr interpolationmode none
attr title "transmitting packet byte length, sum"
attr unit bytes
statistic Net5.rte[5].queue[1] txBytes:histogram
field count 112
field mean 1502.0535714286
field stddev 9.5990233040287
field min 1500
field max 1570
field sum 168230
field sqrsum 252700700
attr interpolationmode none
attr title "transmitting packet byte length, histogram"
attr unit bytes
bin	-inf	0
bin	1482	0
bin	1484	0
bin	1486	0
bin	1488	0
bin	1490	0
bin	1492	0
bin	1494	0
bin	1496	0
bin	1498	0
bin	1500	105
bin	1502	0
bin	1504	0
bin	1506	0
bin	1508	0
bin	1510	1
bin	1512	0
bin	1514	0
bin	1516	0
bin	1518	0
bin	1520	3
bin	1522	0
bin	1524	0
bin	1526	0
bin	1528	0
bin	1530	1
bin	1532	0
bin	1534	0
bin	1536	0
bin	1538	0
bin	1540	0
bin	1542	0
bin	1544	0
bin	1546	0
bin	1548	0
bin	1550	0
bin	1552	0
bin	1554	0
bin	1556	0
bin	1558	0
bin	1560	1
bin	1562	0
bin	1564	0
bin	1566	0
bin	1568	0
bin	1570	1
bin	1572	0
bin	1574	0
bin	1576	0
bin	1578	0
bin	1580	0
bin	1582	0
bin	1584	0
bin	1586	0
bin	1588	0
scalar Net5.rte[5].queue[1] busy:timeavg 0.0048105995702136
attr interpolationmode sample-hold
attr title "server busy state, timeavg"
scalar Net5.rte[5].queue[1] qlen:timeavg 0.0015012570732909
attr interpolationmode sample-hold
attr title "queue length, timeavg"
scalar Net5.rte[5].queue[1] qlen:max 3
attr interpolationmode sample-hold
attr title "queue length, max"
scalar Net5.rte[5].queue[1] drop:count 0
attr interpolationmode none
attr title "dropped packet byte length, count"
attr unit bytes
scalar Net5.rte[5].queue[1] drop:sum 0
attr interpolationmode none
attr title "dropped packet byte length, sum"
attr unit bytes
scalar Net5.rte[5].queue[2] rxBytes:count 46
attr interpolationmode none
attr title "received packet byte length, count"
attr unit bytes
scalar Net5.rte[5].queue[2] rxBytes:sum 69030
attr interpolationmode none
attr title "received packet byte length, sum"
attr unit bytes
statistic Net5.rte[5].queue[2] rxBytes:histogram
field count 46
field mean 1500.652173913
field stddev 4.4232586846485
field min 1500
field max 1530
field sum 69030
field sqrsum 103590900
attr interpolationmode none
attr title "received packet byte length, histogram"
attr unit bytes
bin	-inf	0
bin	1492	0
bin	1493	0
bin	1494	0
bin	1495	0
bin	1496	0
bin	1497	0
bin	1498	0
bin	1499	0
bin	1500	45
bin	1501	0
bin	1502	0
bin	1503	0
bin	1504	0
bin	1505	0
bin	1506	0
bin	1507	0
bin	1508	0
bin	1509	0
bin	1510	0
bin	1511	0
bin	1512	0
bin	1513	0
bin	1514	0
bin	1515	0
bin	1516	0
bin	1517	0
bin	1518	0
bin	1519	0
bin	1520	0
bin	1521	0
bin	1522	0
bin	1523	0
bin	1524	0
bin	1525	0
bin	1526	0
bin	1527	0
bin	1528	0
bin	1529	0
bin	1530	1
bin	1531	0
bin	1532	0
bin	1533	0
bin	1534	0
bin	1535	0
bin	1536	0
bin	1537	0
bin	1538	0
scalar Net5.rte[5].queue[2] txBytes:count 78
attr interpolationmode none
attr title "transmitting packet byte length, count"
attr unit bytes
scalar Net5.rte[5].queue[2] txBytes:sum 117080
attr interpolationmode none
attr title "transmitting packet byte length, sum"
attr unit bytes
statistic Net5.rte[5].queue[2] txBytes:histogram
field count 78
field mean 1501.0256410256
field stddev 7.1331935963137
field min 1500
field max 1560
field sum 117080
field sqrsum 175744000
attr interpolationmode none
attr title "transmitting packet byte length, histogram"
attr unit bytes
bin	-inf	0
bin	1485	0
bin	1486	0
bin	1487	0
bin	1488	0
bin	1489	0
bin	1490	0
bin	1491	0
bin	1492	0
bin	1493	0
bin	1494	0
bin	1495	0
bin	1496	0
bin	1497	0
bin	1498	0
bin	1499	0
bin	1500	76
bin	1501	0
bin	1502	0
bin	1503	0
bin	1504	0
bin	1505	0
bin	1506	0
bin	1507	0
bin	1508	0
bin	1509	0
bin	1510	0
bin	1511	0
bin	1512	0
bin	1513	0
bin	1514	0
bin	1515	0
bin	1516	0
bin	1517	0
bin	1518	0
bin	1519	0
bin	1520	1
bin	1521	0
bin	1522	0
bin	1523	0
bin	1524	0
bin	1525	0
bin	1526	0
bin	1527	0
bin	1528	0
bin	1529	0
bin	1530	0
bin	1531	0
bin	1532	0
bin	1533	0
bin	1534	0
bin	1535	0
bin	1536	0
bin	1537	0
bin	1538	0
bin	1539	0
bin	1540	0
bin	1541	0
bin	1542	0
bin	1543	0
bin	1544	0
bin	1545	0
bin	1546	0
bin	1547	0
bin	1548	0
bin	1549	0
bin	1550	0
bin	1551	0
bin	1552	0
bin	1553	0
bin	1554	0
bin	1555	0
bin	1556	0
bin	1557	0
bin	1558	0
bin	1559	0
bin	1560	1
bin	1561	0
bin	1562	0
bin	1563	0
bin	1564	0
bin	1565	0
bin	1566	0
bin	1567	0
bin	1568	0
bin	1569	0
bin	1570	0
bin	1571	0
bin	1572	0
bin	1573	0
bin	1574	0
bin	1575	0
scalar Net5.rte[5].queue[2] busy:timeavg 0.0033479462502796
attr interpolationmode sample-hold
attr title "server busy state, timeavg"
scalar Net5.rte[5].queue[2] qlen:timeavg 0
attr interpolationmode sample-hold
attr title "queue length, timeavg"
scalar Net5.rte[5].queue[2] qlen:max 0
attr interpolationmode sample-hold
attr title "queue length, max"
scalar Net5.rte[5].queue[2] drop:count 0
attr interpolationmode none
attr title "dropped packet byte length, count"
attr unit bytes
scalar Net5.rte[5].queue[2] drop:sum 0
attr interpolationmode none
attr title "dropped packet byte length, sum"
attr unit bytes
scalar Net5.rte[5].queue[3] rxBytes:count 125
attr interpolationmode none
attr title "received packet byte length, count"
attr unit bytes
scalar Net5.rte[5].queue[3] rxBytes:sum 187590
attr interpolationmode none
attr title "received packet byte length, sum"
attr unit bytes
statistic Net5.rte[5].queue[3] rxBytes:histogram
field count 125
field mean 1500.72
field stddev 6.4976422522799
field min 1500
field max 1570
field sum 187590
field sqrsum 281525300
attr interpolationmode none
attr title "received packet byte length, histogram"
attr unit bytes
bin	-inf	0
bin	1495	0
bin	1496	0
bin	1497	0
bin	1498	0
bin	1499	0
bin	1500	123
bin	1501	0
bin	1502	0
bin	1503	0
bin	1504	0
bin	1505	0
bin	1506	0
bin	1507	0
bin	1508	0
bin	1509	0
bin	1510	0
bin	1511	0
bin	1512	0
bin	1513	0
bin	1514	0
bin	1515	0
bin	1516	0
bin	1517	0
bin	1518	0
bin	1519	0
bin	1520	1
bin	1521	0
bin	1522	0
bin	1523	0
bin	1524	0
bin	1525	0
bin	1526	0
bin	1527	0
bin	1528	0
bin	1529	0
bin	1530	0
bin	1531	0
bin	1532	0
bin	1533	0
bin	1534	0
bin	1535	0
bin	1536	0
bin	1537	0
bin	1538	0
bin	1539	0
bin	1540	0
bin	1541	0
bin	1542	0
bin	1543	0
bin	1544	0
bin	1545	0
bin	1546	0
bin	1547	0
bin	1548	0
bin	1549	0
bin	1550	0
bin	1551	0
bin	1552	0
bin	1553	0
bin	1554	0
bin	1555	0
bin	1556	0
bin	1557	0
bin	1558	0
bin	1559	0
bin	1560	0
bin	1561	0
bin	1562	0
bin	1563	0
bin	1564	0
bin	1565	0
bin	1566	0
bin	1567	0
bin	1568	0
bin	1569	0
bin	1570	1
bin	1571	0
scalar Net5.rte[5].queue[3] txBytes:count 87
attr interpolationmode none
attr title "transmitting packet byte length, count"
attr unit bytes
scalar Net5.rte[5].queue[3] txBytes:sum 130830
attr interpolationmode none
attr title "transmitting packet byte length, sum"
attr unit bytes
statistic Net5.rte[5].queue[3] txBytes:histogram
field count 87
field mean 1503.7931034483
field stddev 14.161968338947
field min 1500
field max 1570
field sum 130830
field sqrsum 196758500
attr interpolationmode none
attr title "transmitting packet byte length, histogram"
attr unit bytes
bin	-inf	0
bin	1482	0
bin	1484	0
bin	1486	0
bin	1488	0
bin	1490	0
bin	1492	0
bin	1494	0
bin	1496	0
bin	1498	0
bin	1500	80
bin	1502	0
bin	1504	0
bin	1506	0
bin	1508	0
bin	1510	1
bin	1512	0
bin	1514	0
bin	1516	0
bin	1518	0
bin	1520	0
bin	1522	0
bin	1524	0
bin	1526	0
bin	1528	0
bin	1530	1
bin	1532	0
bin	1534	0
bin	1536	0
bin	1538	0
bin	1540	1
bin	1542	0
bin	1544	0
bin	1546	0
bin	1548	0
bin	1550	1
bin	1552	0
bin	1554	0
bin	1556	0
bin	1558	0
bin	1560	1
bin	1562	0
bin	1564	0
bin	1566	0
bin	1568	0
bin	1570	2
bin	1572	0
bin	1574	0
bin	1576	0
bin	1578	0
bin	1580	0
bin	1582	0
bin	1584	0
bin	1586	0
bin	1588	0
scalar Net5.rte[5].queue[3] busy:timeavg 0.0037411326265448
attr interpolationmode sample-hold
attr title "server busy state, timeavg"
scalar Net5.rte[5].queue[3] qlen:timeavg 0
attr interpolationmode sample-hold
attr title "queue length, timeavg"
scalar Net5.rte[5].queue[3] qlen:max 0
attr interpolationmode sample-hold
attr title "queue length, max"
scalar Net5.rte[5].queue[3] drop:count 0
attr interpolationmode none
attr title "dropped packet byte length, count"
attr unit bytes
scalar Net5.rte[5].queue[3] drop:sum 0
attr interpolationmode none
attr title "dropped packet byte length, sum"
attr unit bytes
scalar Net5.rte[6].app hopCount:mean 2.4615384615385
attr interpolationmode none
attr title "hop count of arrived packets, mean"
scalar Net5.rte[6].app hopCount:max 3
attr interpolationmode none
attr title "hop count of arrived packets, max"
scalar Net5.rte[6].app endToEndDelay:mean 0.25553760683945
attr interpolationmode none
attr title "end-to-end delay of arrived packets, mean"
attr unit s
scalar Net5.rte[6].app endToEndDelay:max 0.318333333337
attr interpolationmode none
attr title "end-to-end delay of arrived packets, max"
attr unit s
statistic Net5.rte[6].routing outputIf:histogram
field count 125
field mean -0.624
field stddev 0.4863292393351
field min -1
field max 0
field sum -78
field sqrsum 78
attr interpolationmode none
attr title "output interface for each routed packet, histogram"
bin	-inf	0
bin	-2	0
bin	-1	78
bin	0	47
bin	1	0
scalar Net5.rte[6].routing drop:count 0
attr interpolationmode none
attr title "dropped packet byte length, count"
attr unit bytes
scalar Net5.rte[6].routing drop:sum 0
attr interpolationmode none
attr title "dropped packet byte length, sum"
attr unit bytes
scalar Net5.rte[6].queue[0] rxBytes:count 78
attr interpolationmode none
attr title "received packet byte length, count"
attr unit bytes
scalar Net5.rte[6].queue[0] rxBytes:sum 117080
attr interpolationmode none
attr title "received packet byte length, sum"
attr unit bytes
statistic Net5.rte[6].queue[0] rxBytes:histogram
field count 78
field mean 1501.0256410256
field stddev 7.1331935963137
field min 1500
field max 1560
field sum 117080
field sqrsum 175744000
attr interpolationmode none
attr title "received packet byte length, histogram"
attr unit bytes
bin	-inf	0
bin	1485	0
bin	1486	0
bin	1487	0
bin	1488	0
bin	1489	0
bin	1490	0
bin	1491	0
bin	1492	0
bin	1493	0
bin	1494	0
bin	1495	0
bin	1496	0
bin	1497	0
bin	1498	0
bin	1499	0
bin	1500	76
bin	1501	0
bin	1502	0
bin	1503	0
bin	1504	0
bin	1505	0
bin	1506	0
bin	1507	0
bin	1508	0
bin	1509	0
bin	1510	0
bin	1511	0
bin	1512	0
bin	1513	0
bin	1514	0
bin	1515	0
bin	1516	0
bin	1517	0
bin	1518	0
bin	1519	0
bin	1520	1
bin	1521	0
bin	1522	0
bin	1523	0
bin	1524	0
bin	1525	0
bin	1526	0
bin	1527	0
bin	1528	0
bin	1529	0
bin	1530	0
bin	1531	0
bin	1532	0
bin	1533	0
bin	1534	0
bin	1535	0
bin	1536	0
bin	1537	0
bin	1538	0
bin	1539	0
bin	1540	0
bin	1541	0
bin	1542	0
bin	1543	0
bin	1544	0
bin	1545	0
bin	1546	0
bin	1547	0
bin	1548	0
bin	1549	0
bin	1550	0
bin	1551	0
bin	1552	0
bin	1553	0
bin	1554	0
bin	1555	0
bin	1556	0
bin	1557	0
bin	1558	0
bin	1559	0
bin	1560	1
bin	1561	0
bin	1562	0
bin	1563	0
bin	1564	0
bin	1565	0
bin	1566	0
bin	1567	0
bin	1568	0
bin	1569	0
bin	1570	0
bin	1571	0
bin	1572	0
bin	1573	0
bin	1574	0
bin	1575	0
scalar Net5.rte[6].queue[0] txBytes:count 47
attr interpolationmode none
attr title "transmitting packet byte length, count"
attr unit bytes
scalar Net5.rte[6].queue[0] txBytes:sum 70530
attr interpolationmode none
attr title "transmitting packet byte length, sum"
attr unit bytes
statistic Net5.rte[6].queue[0] txBytes:histogram
field count 47
field mean 1500.6382978723
field stddev 4.3759497449439
field min 1500
field max 1530
field sum 70530
field sqrsum 105840900
attr interpolationmode none
attr title "transmitting packet byte length, histogram"
attr unit bytes
bin	-inf	0
bin	1492	0
bin	1493	0
bin	1494	0
bin	1495	0
bin	1496	0
bin	1497	0
bin	1498	0
bin	1499	0
bin	1500	46
bin	1501	0
bin	1502	0
bin	1503	0
bin	1504	0
bin	1505	0
bin	1506	0
bin	1507	0
bin	1508	0
bin	1509	0
bin	1510	0
bin	1511	0
bin	1512	0
bin	1513	0
bin	1514	0
bin	1515	0
bin	1516	0
bin	1517	0
bin	1518	0
bin	1519	0
bin	1520	0
bin	1521	0
bin	1522	0
bin	1523	0
bin	1524	0
bin	1525	0
bin	1526	0
bin	1527	0
bin	1528	0
bin	1529	0
bin	1530	1
bin	1531	0
bin	1532	0
bin	1533	0
bin	1534	0
bin	1535	0
bin	1536	0
bin	1537	0
bin	1538	0
scalar Net5.rte[6].queue[0] busy:timeavg 0.0020168316453095
attr interpolationmode sample-hold
attr title "server busy state, timeavg"
scalar Net5.rte[6].queue[0] qlen:timeavg 0.0073347131295072
attr interpolationmode sample-hold
attr title "queue length, timeavg"
scalar Net5.rte[6].queue[0] qlen:max 9
attr interpolationmode sample-hold
attr title "queue length, max"
scalar Net5.rte[6].queue[0] drop:count 0
attr interpolationmode none
attr title "dropped packet byte length, count"
attr unit bytes
scalar Net5.rte[6].queue[0] drop:sum 0
attr interpolationmode none
attr title "dropped packet byte length, sum"
attr unit bytes
scalar Net5.rte[7].app hopCount:mean 2.4827586206897
attr interpolationmode none
attr title "hop count of arrived packets, mean"
scalar Net5.rte[7].app hopCount:max 3
attr interpolationmode none
attr title "hop count of arrived packets, max"
scalar Net5.rte[7].app endToEndDelay:mean 0.25719489144484
attr interpolationmode none
attr title "end-to-end delay of arrived packets, mean"
attr unit s
scalar Net5.rte[7].app endToEndDelay:max 0.320000000004
attr interpolationmode none
attr title "end-to-end delay of arrived packets, max"
attr unit s
statistic Net5.rte[7].routing outputIf:histogram
field count 212
field mean -0.41037735849057
field stddev 0.4930664751013
field min -1
field max 0
field sum -87
field sqrsum 87
attr interpolationmode none
attr title "output interface for each routed packet, histogram"
bin	-inf	0
bin	-2	0
bin	-1	87
bin	0	125
bin	1	0
scalar Net5.rte[7].routing drop:count 0
attr interpolationmode none
attr title "dropped packet byte length, count"
attr unit bytes
scalar Net5.rte[7].routing drop:sum 0
attr interpolationmode none
attr title "dropped packet byte length, sum"
attr unit bytes
scalar Net5.rte[7].queue[0] rxBytes:count 87
attr interpolationmode none
attr title "received packet byte length, count"
attr unit bytes
scalar Net5.rte[7].queue[0] rxBytes:sum 130830
attr interpolationmode none
attr title "received packet byte length, sum"
attr unit bytes
statistic Net5.rte[7].queue[0] rxBytes:histogram
field count 87
field mean 1503.7931034483
field stddev 14.161968338947
field min 1500
field max 1570
field sum 130830
field sqrsum 196758500
attr interpolationmode none
attr title "received packet byte length, histogram"
attr unit bytes
bin	-inf	0
bin	1482	0
bin	1484	0
bin	1486	0
bin	1488	0
bin	1490	0
bin	1492	0
bin	1494	0
bin	1496	0
bin	1498	0
bin	1500	80
bin	1502	0
bin	1504	0
bin	1506	0
bin	1508	0
bin	1510	1
bin	1512	0
bin	1514	0
bin	1516	0
bin	1518	0
bin	1520	0
bin	1522	0
bin	1524	0
bin	1526	0
bin	1528	0
bin	1530	1
bin	1532	0
bin	1534	0
bin	1536	0
bin	1538	0
bin	1540	1
bin	1542	0
bin	1544	0
bin	1546	0
bin	1548	0
bin	1550	1
bin	1552	0
bin	1554	0
bin	1556	0
bin	1558	0
bin	1560	1
bin	1562	0
bin	1564	0
bin	1566	0
bin	1568	0
bin	1570	2
bin	1572	0
bin	1574	0
bin	1576	0
bin	1578	0
bin	1580	0
bin	1582	0
bin	1584	0
bin	1586	0
bin	1588	0
scalar Net5.rte[7].queue[0] txBytes:count 125
attr interpolationmode none
attr title "transmitting packet byte length, count"
attr unit bytes
scalar Net5.rte[7].queue[0] txBytes:sum 187590
attr interpolationmode none
attr title "transmitting packet byte length, sum"
attr unit bytes
statistic Net5.rte[7].queue[0] txBytes:histogram
field count 125
field mean 1500.72
field stddev 6.4976422522799
field min 1500
field max 1570
field sum 187590
field sqrsum 281525300
attr interpolationmode none
attr title "transmitting packet byte length, histogram"
attr unit bytes
bin	-inf	0
bin	1495	0
bin	1496	0
bin	1497	0
bin	1498	0
bin	1499	0
bin	1500	123
bin	1501	0
bin	1502	0
bin	1503	0
bin	1504	0
bin	1505	0
bin	1506	0
bin	1507	0
bin	1508	0
bin	1509	0
bin	1510	0
bin	1511	0
bin	1512	0
bin	1513	0
bin	1514	0
bin	1515	0
bin	1516	0
bin	1517	0
bin	1518	0
bin	1519	0
bin	1520	1
bin	1521	0
bin	1522	0
bin	1523	0
bin	1524	0
bin	1525	0
bin	1526	0
bin	1527	0
bin	1528	0
bin	1529	0
bin	1530	0
bin	1531	0
bin	1532	0
bin	1533	0
bin	1534	0
bin	1535	0
bin	1536	0
bin	1537	0
bin	1538	0
bin	1539	0
bin	1540	0
bin	1541	0
bin	1542	0
bin	1543	0
bin	1544	0
bin	1545	0
bin	1546	0
bin	1547	0
bin	1548	0
bin	1549	0
bin	1550	0
bin	1551	0
bin	1552	0
bin	1553	0
bin	1554	0
bin	1555	0
bin	1556	0
bin	1557	0
bin	1558	0
bin	1559	0
bin	1560	0
bin	1561	0
bin	1562	0
bin	1563	0
bin	1564	0
bin	1565	0
bin	1566	0
bin	1567	0
bin	1568	0
bin	1569	0
bin	1570	1
bin	1571	0
scalar Net5.rte[7].queue[0] busy:timeavg 0.0053642059881385
attr interpolationmode sample-hold
attr title "server busy state, timeavg"
scalar Net5.rte[7].queue[0] qlen:timeavg 0.020073951722862
attr interpolationmode sample-hold
attr title "queue length, timeavg"
scalar Net5.rte[7].queue[0] qlen:max 9
attr interpolationmode sample-hold
attr title "queue length, max"
scalar Net5.rte[7].queue[0] drop:count 0
attr interpolationmode none
attr title "dropped packet byte length, count"
attr unit bytes
scalar Net5.rte[7].queue[0] drop:sum 0
attr interpolationmode none
attr title "dropped packet byte length, sum"
attr unit bytes
scalar Net5.rte[8].app hopCount:mean 2.0602409638554
attr interpolationmode none
attr title "hop count of arrived packets, mean"
scalar Net5.rte[8].app hopCount:max 3
attr interpolationmode none
attr title "hop count of arrived packets, max"
scalar Net5.rte[8].app endToEndDelay:mean 0.21421860776601
attr interpolationmode none
attr title "end-to-end delay of arrived packets, mean"
attr unit s
scalar Net5.rte[8].app endToEndDelay:max 0.318333333337
attr interpolationmode none
attr title "end-to-end delay of arrived packets, max"
attr unit s
statistic Net5.rte[8].routing outputIf:histogram
field count 236
field mean -0.038135593220339
field stddev 0.81647081656493
field min -1
field max 1
field sum -9
field sqrsum 157
attr interpolationmode none
attr title "output interface for each routed packet, histogram"
bin	-inf	0
bin	-2	0
bin	-1	83
bin	0	79
bin	1	74
bin	2	0
scalar Net5.rte[8].routing drop:count 0
attr interpolationmode none
attr title "dropped packet byte length, count"
attr unit bytes
scalar Net5.rte[8].routing drop:sum 0
attr interpolationmode none
attr title "dropped packet byte length, sum"
attr unit bytes
scalar Net5.rte[8].queue[0] rxBytes:count 53
attr interpolationmode none
attr title "received packet byte length, count"
attr unit bytes
scalar Net5.rte[8].queue[0] rxBytes:sum 79570
attr interpolationmode none
attr title "received packet byte length, sum"
attr unit bytes
statistic Net5.rte[8].queue[0] rxBytes:histogram
field count 53
field mean 1501.320754717
field stddev 7.0813231730276
field min 1500
field max 1550
field sum 79570
field sqrsum 119462700
attr interpolationmode none
attr title "received packet byte length, histogram"
attr unit bytes
bin	-inf	0
bin	1487	0
bin	1488	0
bin	1489	0
bin	1490	0
bin	1491	0
bin	1492	0
bin	1493	0
bin	1494	0
bin	1495	0
bin	1496	0
bin	1497	0
bin	1498	0
bin	1499	0
bin	1500	50
bin	1501	0
bin	1502	0
bin	1503	0
bin	1504	0
bin	1505	0
bin	1506	0
bin	1507	0
bin	1508	0
bin	1509	0
bin	1510	2
bin	1511	0
bin	1512	0
bin	1513	0
bin	1514	0
bin	1515	0
bin	1516	0
bin	1517	0
bin	1518	0
bin	1519	0
bin	1520	0
bin	1521	0
bin	1522	0
bin	1523	0
bin	1524	0
bin	1525	0
bin	1526	0
bin	1527	0
bin	1528	0
bin	1529	0
bin	1530	0
bin	1531	0
bin	1532	0
bin	1533	0
bin	1534	0
bin	1535	0
bin	1536	0
bin	1537	0
bin	1538	0
bin	1539	0
bin	1540	0
bin	1541	0
bin	1542	0
bin	1543	0
bin	1544	0
bin	1545	0
bin	1546	0
bin	1547	0
bin	1548	0
bin	1549	0
bin	1550	1
bin	1551	0
bin	1552	0
bin	1553	0
bin	1554	0
bin	1555	0
bin	1556	0
bin	1557	0
bin	1558	0
bin	1559	0
bin	1560	0
bin	1561	0
bin	1562	0
bin	1563	0
scalar Net5.rte[8].queue[0] txBytes:count 79
attr interpolationmode none
attr title "transmitting packet byte length, count"
attr unit bytes
scalar Net5.rte[8].queue[0] txBytes:sum 118590
attr interpolationmode none
attr title "transmitting packet byte length, sum"
attr unit bytes
statistic Net5.rte[8].queue[0] txBytes:histogram
field count 79
field mean 1501.1392405063
field stddev 6.4025919775668
field min 1500
field max 1540
field sum 118590
field sqrsum 178023300
attr interpolationmode none
attr title "transmitting packet byte length, histogram"
attr unit bytes
bin	-inf	0
bin	1490	0
bin	1491	0
bin	1492	0
bin	1493	0
bin	1494	0
bin	1495	0
bin	1496	0
bin	1497	0
bin	1498	0
bin	1499	0
bin	1500	76
bin	1501	0
bin	1502	0
bin	1503	0
bin	1504	0
bin	1505	0
bin	1506	0
bin	1507	0
bin	1508	0
bin	1509	0
bin	1510	1
bin	1511	0
bin	1512	0
bin	1513	0
bin	1514	0
bin	1515	0
bin	1516	0
bin	1517	0
bin	1518	0
bin	1519	0
bin	1520	0
bin	1521	0
bin	1522	0
bin	1523	0
bin	1524	0
bin	1525	0
bin	1526	0
bin	1527	0
bin	1528	0
bin	1529	0
bin	1530	0
bin	1531	0
bin	1532	0
bin	1533	0
bin	1534	0
bin	1535	0
bin	1536	0
bin	1537	0
bin	1538	0
bin	1539	0
bin	1540	2
bin	1541	0
bin	1542	0
bin	1543	0
bin	1544	0
bin	1545	0
bin	1546	0
bin	1547	0
bin	1548	0
bin	1549	0
bin	1550	0
scalar Net5.rte[8].queue[0] busy:timeavg 0.0033911252632418
attr interpolationmode sample-hold
attr title "server busy state, timeavg"
scalar Net5.rte[8].queue[0] qlen:timeavg 0.003345658620477
attr interpolationmode sample-hold
attr title "queue length, timeavg"
scalar Net5.rte[8].queue[0] qlen:max 4
attr interpolationmode sample-hold
attr title "queue length, max"
scalar Net5.rte[8].queue[0] drop:count 0
attr interpolationmode none
attr title "dropped packet byte length, count"
attr unit bytes
scalar Net5.rte[8].queue[0] drop:sum 0
attr interpolationmode none
attr title "dropped packet byte length, sum"
attr unit bytes
scalar Net5.rte[8].queue[1] rxBytes:count 72
attr interpolationmode none
attr title "received packet byte length, count"
attr unit bytes
scalar Net5.rte[8].queue[1] rxBytes:sum 108060
attr interpolationmode none
attr title "received packet byte length, sum"
attr unit bytes
statistic Net5.rte[8].queue[1] rxBytes:histogram
field count 72
field mean 1500.8333333333
field stddev 5.2406859028561
field min 1500
field max 1540
field sum 108060
field sqrsum 162182000
attr interpolationmode none
attr title "received packet byte length, histogram"
attr unit bytes
bin	-inf	0
bin	1490	0
bin	1491	0
bin	1492	0
bin	1493	0
bin	1494	0
bin	1495	0
bin	1496	0
bin	1497	0
bin	1498	0
bin	1499	0
bin	1500	70
bin	1501	0
bin	1502	0
bin	1503	0
bin	1504	0
bin	1505	0
bin	1506	0
bin	1507	0
bin	1508	0
bin	1509	0
bin	1510	0
bin	1511	0
bin	1512	0
bin	1513	0
bin	1514	0
bin	1515	0
bin	1516	0
bin	1517	0
bin	1518	0
bin	1519	0
bin	1520	1
bin	1521	0
bin	1522	0
bin	1523	0
bin	1524	0
bin	1525	0
bin	1526	0
bin	1527	0
bin	1528	0
bin	1529	0
bin	1530	0
bin	1531	0
bin	1532	0
bin	1533	0
bin	1534	0
bin	1535	0
bin	1536	0
bin	1537	0
bin	1538	0
bin	1539	0
bin	1540	1
bin	1541	0
bin	1542	0
bin	1543	0
bin	1544	0
bin	1545	0
bin	1546	0
bin	1547	0
bin	1548	0
bin	1549	0
bin	1550	0
scalar Net5.rte[8].queue[1] txBytes:count 74
attr interpolationmode none
attr title "transmitting packet byte length, count"
attr unit bytes
scalar Net5.rte[8].queue[1] txBytes:sum 111220
attr interpolationmode none
attr title "transmitting packet byte length, sum"
attr unit bytes
statistic Net5.rte[8].queue[1] txBytes:histogram
field count 74
field mean 1502.972972973
field stddev 14.779635167957
field min 1500
field max 1590
field sum 111220
field sqrsum 167176600
attr interpolationmode none
attr title "transmitting packet byte length, histogram"
attr unit bytes
bin	-inf	0
bin	1476	0
bin	1478	0
bin	1480	0
bin	1482	0
bin	1484	0
bin	1486	0
bin	1488	0
bin	1490	0
bin	1492	0
bin	1494	0
bin	1496	0
bin	1498	0
bin	1500	71
bin	1502	0
bin	1504	0
bin	1506	0
bin	1508	0
bin	1510	0
bin	1512	0
bin	1514	0
bin	1516	0
bin	1518	0
bin	1520	0
bin	1522	0
bin	1524	0
bin	1526	0
bin	1528	0
bin	1530	0
bin	1532	0
bin	1534	0
bin	1536	0
bin	1538	0
bin	1540	0
bin	1542	0
bin	1544	0
bin	1546	0
bin	1548	0
bin	1550	0
bin	1552	0
bin	1554	0
bin	1556	0
bin	1558	0
bin	1560	1
bin	1562	0
bin	1564	0
bin	1566	0
bin	1568	0
bin	1570	1
bin	1572	0
bin	1574	0
bin	1576	0
bin	1578	0
bin	1580	0
bin	1582	0
bin	1584	0
bin	1586	0
bin	1588	0
bin	1590	1
bin	1592	0
bin	1594	0
bin	1596	0
bin	1598	0
bin	1600	0
bin	1602	0
bin	1604	0
bin	1606	0
bin	1608	0
bin	1610	0
bin	1612	0
bin	1614	0
scalar Net5.rte[8].queue[1] busy:timeavg 0.0031803773655124
attr interpolationmode sample-hold
attr title "server busy state, timeavg"
scalar Net5.rte[8].queue[1] qlen:timeavg 0.0050613809899523
attr interpolationmode sample-hold
attr title "queue length, timeavg"
scalar Net5.rte[8].queue[1] qlen:max 5
attr interpolationmode sample-hold
attr title "queue length, max"
scalar Net5.rte[8].queue[1] drop:count 0
attr interpolationmode none
attr title "dropped packet byte length, count"
attr unit bytes
scalar Net5.rte[8].queue[1] drop:sum 0
attr interpolationmode none
attr title "dropped packet byte length, sum"
attr unit bytes
scalar Net5.rte[9].app hopCount:mean 2.1282051282051
attr interpolationmode none
attr title "hop count of arrived packets, mean"
scalar Net5.rte[9].app hopCount:max 3
attr interpolationmode none
attr title "hop count of arrived packets, max"
scalar Net5.rte[9].app endToEndDelay:mean 0.22218190883376
attr interpolationmode none
attr title "end-to-end delay of arrived packets, mean"
attr unit s
scalar Net5.rte[9].app endToEndDelay:max 0.320000000004
attr interpolationmode none
attr title "end-to-end delay of arrived packets, max"
attr unit s
statistic Net5.rte[9].routing outputIf:histogram
field count 144
field mean -0.27777777777778
field stddev 0.85643956791401
field min -1
field max 1
field sum -40
field sqrsum 116
attr interpolationmode none
attr title "output interface for each routed packet, histogram"
bin	-inf	0
bin	-2	0
bin	-1	78
bin	0	28
bin	1	38
bin	2	0
scalar Net5.rte[9].routing drop:count 0
attr interpolationmode none
attr title "dropped packet byte length, count"
attr unit bytes
scalar Net5.rte[9].routing drop:sum 0
attr interpolationmode none
attr title "dropped packet byte length, sum"
attr unit bytes
scalar Net5.rte[9].queue[0] rxBytes:count 36
attr interpolationmode none
attr title "received packet byte length, count"
attr unit bytes
scalar Net5.rte[9].queue[0] rxBytes:sum 54000
attr interpolationmode none
attr title "received packet byte length, sum"
attr unit bytes
statistic Net5.rte[9].queue[0] rxBytes:histogram
field count 36
field mean 1500
field stddev 0
field min 1500
field max 1500
field sum 54000
field sqrsum 81000000
attr interpolationmode none
attr title "received packet byte length, histogram"
attr unit bytes
bin	-inf	0
bin	1499	0
bin	1500	36
bin	1501	0
scalar Net5.rte[9].queue[0] txBytes:count 28
attr interpolationmode none
attr title "transmitting packet byte length, count"
attr unit bytes
scalar Net5.rte[9].queue[0] txBytes:sum 42030
attr interpolationmode none
attr title "transmitting packet byte length, sum"
attr unit bytes
statistic Net5.rte[9].queue[0] txBytes:histogram
field count 28
field mean 1501.0714285714
field stddev 4.1626965212566
field min 1500
field max 1520
field sum 42030
field sqrsum 63090500
attr interpolationmode none
attr title "transmitting packet byte length, histogram"
attr unit bytes
bin	-inf	0
bin	1495	0
bin	1496	0
bin	1497	0
bin	1498	0
bin	1499	0
bin	1500	26
bin	1501	0
bin	1502	0
bin	1503	0
bin	1504	0
bin	1505	0
bin	1506	0
bin	1507	0
bin	1508	0
bin	1509	0
bin	1510	1
bin	1511	0
bin	1512	0
bin	1513	0
bin	1514	0
bin	1515	0
bin	1516	0
bin	1517	0
bin	1518	0
bin	1519	0
bin	1520	1
bin	1521	0
bin	1522	0
bin	1523	0
bin	1524	0
bin	1525	0
scalar Net5.rte[9].queue[0] busy:timeavg 0.0012018635198087
attr interpolationmode sample-hold
attr title "server busy state, timeavg"
scalar Net5.rte[9].queue[0] qlen:timeavg 0.0015441501325278
attr interpolationmode sample-hold
attr title "queue length, timeavg"
scalar Net5.rte[9].queue[0] qlen:max 3
attr interpolationmode sample-hold
attr title "queue length, max"
scalar Net5.rte[9].queue[0] drop:count 0
attr interpolationmode none
attr title "dropped packet byte length, count"
attr unit bytes
scalar Net5.rte[9].queue[0] drop:sum 0
attr interpolationmode none
attr title "dropped packet byte length, sum"
attr unit bytes
scalar Net5.rte[9].queue[1] rxBytes:count 42
attr interpolationmode none
attr title "received packet byte length, count"
attr unit bytes
scalar Net5.rte[9].queue[1] rxBytes:sum 63070
attr interpolationmode none
attr title "received packet byte length, sum"
attr unit bytes
statistic Net5.rte[9].queue[1] rxBytes:histogram
field count 42
field mean 1501.6666666667
field stddev 7.624308578533
field min 1500
field max 1540
field sum 63070
field sqrsum 94712500
attr interpolationmode none
attr title "received packet byte length, histogram"
attr unit bytes
bin	-inf	0
bin	1490	0
bin	1491	0
bin	1492	0
bin	1493	0
bin	1494	0
bin	1495	0
bin	1496	0
bin	1497	0
bin	1498	0
bin	1499	0
bin	1500	40
bin	1501	0
bin	1502	0
bin	1503	0
bin	1504	0
bin	1505	0
bin	1506	0
bin	1507	0
bin	1508	0
bin	1509	0
bin	1510	0
bin	1511	0
bin	1512	0
bin	1513	0
bin	1514	0
bin	1515	0
bin	1516	0
bin	1517	0
bin	1518	0
bin	1519	0
bin	1520	0
bin	1521	0
bin	1522	0
bin	1523	0
bin	1524	0
bin	1525	0
bin	1526	0
bin	1527	0
bin	1528	0
bin	1529	0
bin	1530	1
bin	1531	0
bin	1532	0
bin	1533	0
bin	1534	0
bin	1535	0
bin	1536	0
bin	1537	0
bin	1538	0
bin	1539	0
bin	1540	1
bin	1541	0
bin	1542	0
bin	1543	0
bin	1544	0
bin	1545	0
bin	1546	0
bin	1547	0
bin	1548	0
bin	1549	0
bin	1550	0
scalar Net5.rte[9].queue[1] txBytes:count 38
attr interpolationmode none
attr title "transmitting packet byte length, count"
attr unit bytes
scalar Net5.rte[9].queue[1] txBytes:sum 57050
attr interpolationmode none
attr title "transmitting packet byte length, sum"
attr unit bytes
statistic Net5.rte[9].queue[1] txBytes:histogram
field count 38
field mean 1501.3157894737
field stddev 8.1110710565407
field min 1500
field max 1550
field sum 57050
field sqrsum 85652500
attr interpolationmode none
attr title "transmitting packet byte length, histogram"
attr unit bytes
bin	-inf	0
bin	1487	0
bin	1488	0
bin	1489	0
bin	1490	0
bin	1491	0
bin	1492	0
bin	1493	0
bin	1494	0
bin	1495	0
bin	1496	0
bin	1497	0
bin	1498	0
bin	1499	0
bin	1500	37
bin	1501	0
bin	1502	0
bin	1503	0
bin	1504	0
bin	1505	0
bin	1506	0
bin	1507	0
bin	1508	0
bin	1509	0
bin	1510	0
bin	1511	0
bin	1512	0
bin	1513	0
bin	1514	0
bin	1515	0
bin	1516	0
bin	1517	0
bin	1518	0
bin	1519	0
bin	1520	0
bin	1521	0
bin	1522	0
bin	1523	0
bin	1524	0
bin	1525	0
bin	1526	0
bin	1527	0
bin	1528	0
bin	1529	0
bin	1530	0
bin	1531	0
bin	1532	0
bin	1533	0
bin	1534	0
bin	1535	0
bin	1536	0
bin	1537	0
bin	1538	0
bin	1539	0
bin	1540	0
bin	1541	0
bin	1542	0
bin	1543	0
bin	1544	0
bin	1545	0
bin	1546	0
bin	1547	0
bin	1548	0
bin	1549	0
bin	1550	1
bin	1551	0
bin	1552	0
bin	1553	0
bin	1554	0
bin	1555	0
bin	1556	0
bin	1557	0
bin	1558	0
bin	1559	0
bin	1560	0
bin	1561	0
bin	1562	0
bin	1563	0
scalar Net5.rte[9].queue[1] busy:timeavg 0.0016313660196282
attr interpolationmode sample-hold
attr title "server busy state, timeavg"
scalar Net5.rte[9].queue[1] qlen:timeavg 0.0030025141465819
attr interpolationmode sample-hold
attr title "queue length, timeavg"
scalar Net5.rte[9].queue[1] qlen:max 5
attr interpolationmode sample-hold
attr title "queue length, max"
scalar Net5.rte[9].queue[1] drop:count 0
attr interpolationmode none
attr title "dropped packet byte length, count"
attr unit bytes
scalar Net5.rte[9].queue[1] drop:sum 0
attr interpolationmode none
attr title "dropped packet byte length, sum"
attr unit bytes

