version 2
run General-3-20190529-16:32:52-4608
attr configname General
attr datetime 20190529-16:32:52
attr experiment General
attr inifile omnetpp.ini
attr iterationvars ""
attr iterationvarsf ""
attr measurement ""
attr network networks.Net5
attr processid 4608
attr repetition 3
attr replication #3
attr resultdir results
attr runnumber 3
attr seedset 3
param **.appType "\"App\""
param **.app.packetLength "1500 bytes"
param **.app.totalNodes 3
param **.destAddresses "\"0\""
param **.sendIaTime "uniform(5s, 10s)"
param **.sendIaTimeEvil 10ms

scalar Net5.rte[0].app hopCount:mean 1
attr interpolationmode none
attr title "hop count of arrived packets, mean"
scalar Net5.rte[0].app hopCount:max 1
attr interpolationmode none
attr title "hop count of arrived packets, max"
scalar Net5.rte[0].app endToEndDelay:mean 0.10186601307224
attr interpolationmode none
attr title "end-to-end delay of arrived packets, mean"
attr unit s
scalar Net5.rte[0].app endToEndDelay:max 0.103333333334
attr interpolationmode none
attr title "end-to-end delay of arrived packets, max"
attr unit s
statistic Net5.rte[0].routing outputIf:histogram
field count 30
field mean -0.4
field stddev 0.77013209793896
field min -1
field max 1
field sum -12
field sqrsum 22
attr interpolationmode none
attr title "output interface for each routed packet, histogram"
bin	-inf	0
bin	-2	0
bin	-1	17
bin	0	8
bin	1	5
bin	2	0
scalar Net5.rte[0].routing drop:count 0
attr interpolationmode none
attr title "dropped packet byte length, count"
attr unit bytes
scalar Net5.rte[0].routing drop:sum 0
attr interpolationmode none
attr title "dropped packet byte length, sum"
attr unit bytes
scalar Net5.rte[0].queue[0] rxBytes:count 10
attr interpolationmode none
attr title "received packet byte length, count"
attr unit bytes
scalar Net5.rte[0].queue[0] rxBytes:sum 15050
attr interpolationmode none
attr title "received packet byte length, sum"
attr unit bytes
statistic Net5.rte[0].queue[0] rxBytes:histogram
field count 10
field mean 1505
field stddev 15.811388300842
field min 1500
field max 1550
field sum 15050
field sqrsum 22652500
attr interpolationmode none
attr title "received packet byte length, histogram"
attr unit bytes
bin	-inf	0
bin	1487	0
bin	1488	0
bin	1489	0
bin	1490	0
bin	1491	0
bin	1492	0
bin	1493	0
bin	1494	0
bin	1495	0
bin	1496	0
bin	1497	0
bin	1498	0
bin	1499	0
bin	1500	9
bin	1501	0
bin	1502	0
bin	1503	0
bin	1504	0
bin	1505	0
bin	1506	0
bin	1507	0
bin	1508	0
bin	1509	0
bin	1510	0
bin	1511	0
bin	1512	0
bin	1513	0
bin	1514	0
bin	1515	0
bin	1516	0
bin	1517	0
bin	1518	0
bin	1519	0
bin	1520	0
bin	1521	0
bin	1522	0
bin	1523	0
bin	1524	0
bin	1525	0
bin	1526	0
bin	1527	0
bin	1528	0
bin	1529	0
bin	1530	0
bin	1531	0
bin	1532	0
bin	1533	0
bin	1534	0
bin	1535	0
bin	1536	0
bin	1537	0
bin	1538	0
bin	1539	0
bin	1540	0
bin	1541	0
bin	1542	0
bin	1543	0
bin	1544	0
bin	1545	0
bin	1546	0
bin	1547	0
bin	1548	0
bin	1549	0
bin	1550	1
bin	1551	0
bin	1552	0
bin	1553	0
bin	1554	0
bin	1555	0
bin	1556	0
bin	1557	0
bin	1558	0
bin	1559	0
bin	1560	0
bin	1561	0
bin	1562	0
bin	1563	0
scalar Net5.rte[0].queue[0] txBytes:count 8
attr interpolationmode none
attr title "transmitting packet byte length, count"
attr unit bytes
scalar Net5.rte[0].queue[0] txBytes:sum 12010
attr interpolationmode none
attr title "transmitting packet byte length, sum"
attr unit bytes
statistic Net5.rte[0].queue[0] txBytes:histogram
field count 8
field mean 1501.25
field stddev 3.5355339059327
field min 1500
field max 1510
field sum 12010
field sqrsum 18030100
attr interpolationmode none
attr title "transmitting packet byte length, histogram"
attr unit bytes
bin	-inf	0
bin	1497	0
bin	1498	0
bin	1499	0
bin	1500	7
bin	1501	0
bin	1502	0
bin	1503	0
bin	1504	0
bin	1505	0
bin	1506	0
bin	1507	0
bin	1508	0
bin	1509	0
bin	1510	1
bin	1511	0
bin	1512	0
bin	1513	0
scalar Net5.rte[0].queue[0] busy:timeavg 0.00070682671089872
attr interpolationmode sample-hold
attr title "server busy state, timeavg"
scalar Net5.rte[0].queue[0] qlen:timeavg 8.8279772386102e-005
attr interpolationmode sample-hold
attr title "queue length, timeavg"
scalar Net5.rte[0].queue[0] qlen:max 1
attr interpolationmode sample-hold
attr title "queue length, max"
scalar Net5.rte[0].queue[0] drop:count 0
attr interpolationmode none
attr title "dropped packet byte length, count"
attr unit bytes
scalar Net5.rte[0].queue[0] drop:sum 0
attr interpolationmode none
attr title "dropped packet byte length, sum"
attr unit bytes
scalar Net5.rte[0].queue[1] rxBytes:count 7
attr interpolationmode none
attr title "received packet byte length, count"
attr unit bytes
scalar Net5.rte[0].queue[1] rxBytes:sum 10500
attr interpolationmode none
attr title "received packet byte length, sum"
attr unit bytes
statistic Net5.rte[0].queue[1] rxBytes:histogram
field count 7
field mean 1500
field stddev 0
field min 1500
field max 1500
field sum 10500
field sqrsum 15750000
attr interpolationmode none
attr title "received packet byte length, histogram"
attr unit bytes
bin	-inf	0
bin	1499	0
bin	1500	7
bin	1501	0
scalar Net5.rte[0].queue[1] txBytes:count 5
attr interpolationmode none
attr title "transmitting packet byte length, count"
attr unit bytes
scalar Net5.rte[0].queue[1] txBytes:sum 7520
attr interpolationmode none
attr title "transmitting packet byte length, sum"
attr unit bytes
statistic Net5.rte[0].queue[1] txBytes:histogram
field count 5
field mean 1504
field stddev 8.9442719099992
field min 1500
field max 1520
field sum 7520
field sqrsum 11310400
attr interpolationmode none
attr title "transmitting packet byte length, histogram"
attr unit bytes
bin	-inf	0
bin	1495	0
bin	1496	0
bin	1497	0
bin	1498	0
bin	1499	0
bin	1500	4
bin	1501	0
bin	1502	0
bin	1503	0
bin	1504	0
bin	1505	0
bin	1506	0
bin	1507	0
bin	1508	0
bin	1509	0
bin	1510	0
bin	1511	0
bin	1512	0
bin	1513	0
bin	1514	0
bin	1515	0
bin	1516	0
bin	1517	0
bin	1518	0
bin	1519	0
bin	1520	1
bin	1521	0
bin	1522	0
bin	1523	0
bin	1524	0
bin	1525	0
scalar Net5.rte[0].queue[1] busy:timeavg 0.00044257592555032
attr interpolationmode sample-hold
attr title "server busy state, timeavg"
scalar Net5.rte[0].queue[1] qlen:timeavg 0
attr interpolationmode sample-hold
attr title "queue length, timeavg"
scalar Net5.rte[0].queue[1] qlen:max 0
attr interpolationmode sample-hold
attr title "queue length, max"
scalar Net5.rte[0].queue[1] drop:count 0
attr interpolationmode none
attr title "dropped packet byte length, count"
attr unit bytes
scalar Net5.rte[0].queue[1] drop:sum 0
attr interpolationmode none
attr title "dropped packet byte length, sum"
attr unit bytes
scalar Net5.rte[1].app hopCount:mean 1
attr interpolationmode none
attr title "hop count of arrived packets, mean"
scalar Net5.rte[1].app hopCount:max 1
attr interpolationmode none
attr title "hop count of arrived packets, max"
scalar Net5.rte[1].app endToEndDelay:mean 0.10190634920671
attr interpolationmode none
attr title "end-to-end delay of arrived packets, mean"
attr unit s
scalar Net5.rte[1].app endToEndDelay:max 0.103333333334
attr interpolationmode none
attr title "end-to-end delay of arrived packets, max"
attr unit s
statistic Net5.rte[1].routing outputIf:histogram
field count 43
field mean -0.2093023255814
field stddev 0.86073444649056
field min -1
field max 1
field sum -9
field sqrsum 33
attr interpolationmode none
attr title "output interface for each routed packet, histogram"
bin	-inf	0
bin	-2	0
bin	-1	21
bin	0	10
bin	1	12
bin	2	0
scalar Net5.rte[1].routing drop:count 0
attr interpolationmode none
attr title "dropped packet byte length, count"
attr unit bytes
scalar Net5.rte[1].routing drop:sum 0
attr interpolationmode none
attr title "dropped packet byte length, sum"
attr unit bytes
scalar Net5.rte[1].queue[0] rxBytes:count 8
attr interpolationmode none
attr title "received packet byte length, count"
attr unit bytes
scalar Net5.rte[1].queue[0] rxBytes:sum 12010
attr interpolationmode none
attr title "received packet byte length, sum"
attr unit bytes
statistic Net5.rte[1].queue[0] rxBytes:histogram
field count 8
field mean 1501.25
field stddev 3.5355339059327
field min 1500
field max 1510
field sum 12010
field sqrsum 18030100
attr interpolationmode none
attr title "received packet byte length, histogram"
attr unit bytes
bin	-inf	0
bin	1497	0
bin	1498	0
bin	1499	0
bin	1500	7
bin	1501	0
bin	1502	0
bin	1503	0
bin	1504	0
bin	1505	0
bin	1506	0
bin	1507	0
bin	1508	0
bin	1509	0
bin	1510	1
bin	1511	0
bin	1512	0
bin	1513	0
scalar Net5.rte[1].queue[0] txBytes:count 10
attr interpolationmode none
attr title "transmitting packet byte length, count"
attr unit bytes
scalar Net5.rte[1].queue[0] txBytes:sum 15050
attr interpolationmode none
attr title "transmitting packet byte length, sum"
attr unit bytes
statistic Net5.rte[1].queue[0] txBytes:histogram
field count 10
field mean 1505
field stddev 15.811388300842
field min 1500
field max 1550
field sum 15050
field sqrsum 22652500
attr interpolationmode none
attr title "transmitting packet byte length, histogram"
attr unit bytes
bin	-inf	0
bin	1487	0
bin	1488	0
bin	1489	0
bin	1490	0
bin	1491	0
bin	1492	0
bin	1493	0
bin	1494	0
bin	1495	0
bin	1496	0
bin	1497	0
bin	1498	0
bin	1499	0
bin	1500	9
bin	1501	0
bin	1502	0
bin	1503	0
bin	1504	0
bin	1505	0
bin	1506	0
bin	1507	0
bin	1508	0
bin	1509	0
bin	1510	0
bin	1511	0
bin	1512	0
bin	1513	0
bin	1514	0
bin	1515	0
bin	1516	0
bin	1517	0
bin	1518	0
bin	1519	0
bin	1520	0
bin	1521	0
bin	1522	0
bin	1523	0
bin	1524	0
bin	1525	0
bin	1526	0
bin	1527	0
bin	1528	0
bin	1529	0
bin	1530	0
bin	1531	0
bin	1532	0
bin	1533	0
bin	1534	0
bin	1535	0
bin	1536	0
bin	1537	0
bin	1538	0
bin	1539	0
bin	1540	0
bin	1541	0
bin	1542	0
bin	1543	0
bin	1544	0
bin	1545	0
bin	1546	0
bin	1547	0
bin	1548	0
bin	1549	0
bin	1550	1
bin	1551	0
bin	1552	0
bin	1553	0
bin	1554	0
bin	1555	0
bin	1556	0
bin	1557	0
bin	1558	0
bin	1559	0
bin	1560	0
bin	1561	0
bin	1562	0
bin	1563	0
scalar Net5.rte[1].queue[0] busy:timeavg 0.00088574038291054
attr interpolationmode sample-hold
attr title "server busy state, timeavg"
scalar Net5.rte[1].queue[0] qlen:timeavg 8.8279772386102e-005
attr interpolationmode sample-hold
attr title "queue length, timeavg"
scalar Net5.rte[1].queue[0] qlen:max 1
attr interpolationmode sample-hold
attr title "queue length, max"
scalar Net5.rte[1].queue[0] drop:count 0
attr interpolationmode none
attr title "dropped packet byte length, count"
attr unit bytes
scalar Net5.rte[1].queue[0] drop:sum 0
attr interpolationmode none
attr title "dropped packet byte length, sum"
attr unit bytes
scalar Net5.rte[1].queue[1] rxBytes:count 13
attr interpolationmode none
attr title "received packet byte length, count"
attr unit bytes
scalar Net5.rte[1].queue[1] rxBytes:sum 19520
attr interpolationmode none
attr title "received packet byte length, sum"
attr unit bytes
statistic Net5.rte[1].queue[1] rxBytes:histogram
field count 13
field mean 1501.5384615385
field stddev 5.5470019622609
field min 1500
field max 1520
field sum 19520
field sqrsum 29310400
attr interpolationmode none
attr title "received packet byte length, histogram"
attr unit bytes
bin	-inf	0
bin	1495	0
bin	1496	0
bin	1497	0
bin	1498	0
bin	1499	0
bin	1500	12
bin	1501	0
bin	1502	0
bin	1503	0
bin	1504	0
bin	1505	0
bin	1506	0
bin	1507	0
bin	1508	0
bin	1509	0
bin	1510	0
bin	1511	0
bin	1512	0
bin	1513	0
bin	1514	0
bin	1515	0
bin	1516	0
bin	1517	0
bin	1518	0
bin	1519	0
bin	1520	1
bin	1521	0
bin	1522	0
bin	1523	0
bin	1524	0
bin	1525	0
scalar Net5.rte[1].queue[1] txBytes:count 12
attr interpolationmode none
attr title "transmitting packet byte length, count"
attr unit bytes
scalar Net5.rte[1].queue[1] txBytes:sum 18080
attr interpolationmode none
attr title "transmitting packet byte length, sum"
attr unit bytes
statistic Net5.rte[1].queue[1] txBytes:histogram
field count 12
field mean 1506.6666666667
field stddev 16.143297699236
field min 1500
field max 1550
field sum 18080
field sqrsum 27243400
attr interpolationmode none
attr title "transmitting packet byte length, histogram"
attr unit bytes
bin	-inf	0
bin	1487	0
bin	1488	0
bin	1489	0
bin	1490	0
bin	1491	0
bin	1492	0
bin	1493	0
bin	1494	0
bin	1495	0
bin	1496	0
bin	1497	0
bin	1498	0
bin	1499	0
bin	1500	10
bin	1501	0
bin	1502	0
bin	1503	0
bin	1504	0
bin	1505	0
bin	1506	0
bin	1507	0
bin	1508	0
bin	1509	0
bin	1510	0
bin	1511	0
bin	1512	0
bin	1513	0
bin	1514	0
bin	1515	0
bin	1516	0
bin	1517	0
bin	1518	0
bin	1519	0
bin	1520	0
bin	1521	0
bin	1522	0
bin	1523	0
bin	1524	0
bin	1525	0
bin	1526	0
bin	1527	0
bin	1528	0
bin	1529	0
bin	1530	1
bin	1531	0
bin	1532	0
bin	1533	0
bin	1534	0
bin	1535	0
bin	1536	0
bin	1537	0
bin	1538	0
bin	1539	0
bin	1540	0
bin	1541	0
bin	1542	0
bin	1543	0
bin	1544	0
bin	1545	0
bin	1546	0
bin	1547	0
bin	1548	0
bin	1549	0
bin	1550	1
bin	1551	0
bin	1552	0
bin	1553	0
bin	1554	0
bin	1555	0
bin	1556	0
bin	1557	0
bin	1558	0
bin	1559	0
bin	1560	0
bin	1561	0
bin	1562	0
bin	1563	0
scalar Net5.rte[1].queue[1] busy:timeavg 0.0010640655231125
attr interpolationmode sample-hold
attr title "server busy state, timeavg"
scalar Net5.rte[1].queue[1] qlen:timeavg 8.8279772386102e-005
attr interpolationmode sample-hold
attr title "queue length, timeavg"
scalar Net5.rte[1].queue[1] qlen:max 1
attr interpolationmode sample-hold
attr title "queue length, max"
scalar Net5.rte[1].queue[1] drop:count 0
attr interpolationmode none
attr title "dropped packet byte length, count"
attr unit bytes
scalar Net5.rte[1].queue[1] drop:sum 0
attr interpolationmode none
attr title "dropped packet byte length, sum"
attr unit bytes
scalar Net5.rte[2].app hopCount:mean 1
attr interpolationmode none
attr title "hop count of arrived packets, mean"
scalar Net5.rte[2].app hopCount:max 1
attr interpolationmode none
attr title "hop count of arrived packets, max"
scalar Net5.rte[2].app endToEndDelay:mean 0.10177124183035
attr interpolationmode none
attr title "end-to-end delay of arrived packets, mean"
attr unit s
scalar Net5.rte[2].app endToEndDelay:max 0.103333333334
attr interpolationmode none
attr title "end-to-end delay of arrived packets, max"
attr unit s
statistic Net5.rte[2].routing outputIf:histogram
field count 37
field mean -0.10810810810811
field stddev 0.90626779779562
field min -1
field max 1
field sum -4
field sqrsum 30
attr interpolationmode none
attr title "output interface for each routed packet, histogram"
bin	-inf	0
bin	-2	0
bin	-1	17
bin	0	7
bin	1	13
bin	2	0
scalar Net5.rte[2].routing drop:count 0
attr interpolationmode none
attr title "dropped packet byte length, count"
attr unit bytes
scalar Net5.rte[2].routing drop:sum 0
attr interpolationmode none
attr title "dropped packet byte length, sum"
attr unit bytes
scalar Net5.rte[2].queue[0] rxBytes:count 5
attr interpolationmode none
attr title "received packet byte length, count"
attr unit bytes
scalar Net5.rte[2].queue[0] rxBytes:sum 7520
attr interpolationmode none
attr title "received packet byte length, sum"
attr unit bytes
statistic Net5.rte[2].queue[0] rxBytes:histogram
field count 5
field mean 1504
field stddev 8.9442719099992
field min 1500
field max 1520
field sum 7520
field sqrsum 11310400
attr interpolationmode none
attr title "received packet byte length, histogram"
attr unit bytes
bin	-inf	0
bin	1495	0
bin	1496	0
bin	1497	0
bin	1498	0
bin	1499	0
bin	1500	4
bin	1501	0
bin	1502	0
bin	1503	0
bin	1504	0
bin	1505	0
bin	1506	0
bin	1507	0
bin	1508	0
bin	1509	0
bin	1510	0
bin	1511	0
bin	1512	0
bin	1513	0
bin	1514	0
bin	1515	0
bin	1516	0
bin	1517	0
bin	1518	0
bin	1519	0
bin	1520	1
bin	1521	0
bin	1522	0
bin	1523	0
bin	1524	0
bin	1525	0
scalar Net5.rte[2].queue[0] txBytes:count 7
attr interpolationmode none
attr title "transmitting packet byte length, count"
attr unit bytes
scalar Net5.rte[2].queue[0] txBytes:sum 10500
attr interpolationmode none
attr title "transmitting packet byte length, sum"
attr unit bytes
statistic Net5.rte[2].queue[0] txBytes:histogram
field count 7
field mean 1500
field stddev 0
field min 1500
field max 1500
field sum 10500
field sqrsum 15750000
attr interpolationmode none
attr title "transmitting packet byte length, histogram"
attr unit bytes
bin	-inf	0
bin	1499	0
bin	1500	7
bin	1501	0
scalar Net5.rte[2].queue[0] busy:timeavg 0.00061795840670271
attr interpolationmode sample-hold
attr title "server busy state, timeavg"
scalar Net5.rte[2].queue[0] qlen:timeavg 8.8279772386102e-005
attr interpolationmode sample-hold
attr title "queue length, timeavg"
scalar Net5.rte[2].queue[0] qlen:max 1
attr interpolationmode sample-hold
attr title "queue length, max"
scalar Net5.rte[2].queue[0] drop:count 0
attr interpolationmode none
attr title "dropped packet byte length, count"
attr unit bytes
scalar Net5.rte[2].queue[0] drop:sum 0
attr interpolationmode none
attr title "dropped packet byte length, sum"
attr unit bytes
scalar Net5.rte[2].queue[1] rxBytes:count 12
attr interpolationmode none
attr title "received packet byte length, count"
attr unit bytes
scalar Net5.rte[2].queue[1] rxBytes:sum 18080
attr interpolationmode none
attr title "received packet byte length, sum"
attr unit bytes
statistic Net5.rte[2].queue[1] rxBytes:histogram
field count 12
field mean 1506.6666666667
field stddev 16.143297699236
field min 1500
field max 1550
field sum 18080
field sqrsum 27243400
attr interpolationmode none
attr title "received packet byte length, histogram"
attr unit bytes
bin	-inf	0
bin	1487	0
bin	1488	0
bin	1489	0
bin	1490	0
bin	1491	0
bin	1492	0
bin	1493	0
bin	1494	0
bin	1495	0
bin	1496	0
bin	1497	0
bin	1498	0
bin	1499	0
bin	1500	10
bin	1501	0
bin	1502	0
bin	1503	0
bin	1504	0
bin	1505	0
bin	1506	0
bin	1507	0
bin	1508	0
bin	1509	0
bin	1510	0
bin	1511	0
bin	1512	0
bin	1513	0
bin	1514	0
bin	1515	0
bin	1516	0
bin	1517	0
bin	1518	0
bin	1519	0
bin	1520	0
bin	1521	0
bin	1522	0
bin	1523	0
bin	1524	0
bin	1525	0
bin	1526	0
bin	1527	0
bin	1528	0
bin	1529	0
bin	1530	1
bin	1531	0
bin	1532	0
bin	1533	0
bin	1534	0
bin	1535	0
bin	1536	0
bin	1537	0
bin	1538	0
bin	1539	0
bin	1540	0
bin	1541	0
bin	1542	0
bin	1543	0
bin	1544	0
bin	1545	0
bin	1546	0
bin	1547	0
bin	1548	0
bin	1549	0
bin	1550	1
bin	1551	0
bin	1552	0
bin	1553	0
bin	1554	0
bin	1555	0
bin	1556	0
bin	1557	0
bin	1558	0
bin	1559	0
bin	1560	0
bin	1561	0
bin	1562	0
bin	1563	0
scalar Net5.rte[2].queue[1] txBytes:count 13
attr interpolationmode none
attr title "transmitting packet byte length, count"
attr unit bytes
scalar Net5.rte[2].queue[1] txBytes:sum 19520
attr interpolationmode none
attr title "transmitting packet byte length, sum"
attr unit bytes
statistic Net5.rte[2].queue[1] txBytes:histogram
field count 13
field mean 1501.5384615385
field stddev 5.5470019622609
field min 1500
field max 1520
field sum 19520
field sqrsum 29310400
attr interpolationmode none
attr title "transmitting packet byte length, histogram"
attr unit bytes
bin	-inf	0
bin	1495	0
bin	1496	0
bin	1497	0
bin	1498	0
bin	1499	0
bin	1500	12
bin	1501	0
bin	1502	0
bin	1503	0
bin	1504	0
bin	1505	0
bin	1506	0
bin	1507	0
bin	1508	0
bin	1509	0
bin	1510	0
bin	1511	0
bin	1512	0
bin	1513	0
bin	1514	0
bin	1515	0
bin	1516	0
bin	1517	0
bin	1518	0
bin	1519	0
bin	1520	1
bin	1521	0
bin	1522	0
bin	1523	0
bin	1524	0
bin	1525	0
scalar Net5.rte[2].queue[1] busy:timeavg 0.0011488141046391
attr interpolationmode sample-hold
attr title "server busy state, timeavg"
scalar Net5.rte[2].queue[1] qlen:timeavg 0.0001765595447722
attr interpolationmode sample-hold
attr title "queue length, timeavg"
scalar Net5.rte[2].queue[1] qlen:max 1
attr interpolationmode sample-hold
attr title "queue length, max"
scalar Net5.rte[2].queue[1] drop:count 0
attr interpolationmode none
attr title "dropped packet byte length, count"
attr unit bytes
scalar Net5.rte[2].queue[1] drop:sum 0
attr interpolationmode none
attr title "dropped packet byte length, sum"
attr unit bytes

