version 2
run General-11-20190610-18:03:52-1596
attr configname General
attr datetime 20190610-18:03:52
attr experiment General
attr inifile omnetpp.ini
attr iterationvars ""
attr iterationvarsf ""
attr measurement ""
attr network networks.Net5
attr processid 1596
attr repetition 11
attr replication #11
attr resultdir results
attr runnumber 11
attr seedset 11
param **.appType "\"App\""
param **.app.packetLength "1500 bytes"
param **.app.totalNodes 10
param **.destAddresses "\"0\""
param **.sendIaTime "uniform(5s, 10s)"
param **.sendIaTimeEvil 10ms

vector 0 Net5.rte[8].app endToEndDelay:vector ETV
attr interpolationmode none
attr title "end-to-end delay of arrived packets, vector"
attr unit s
vector 1 Net5.rte[2].app endToEndDelay:vector ETV
attr interpolationmode none
attr title "end-to-end delay of arrived packets, vector"
attr unit s
vector 2 Net5.rte[3].app endToEndDelay:vector ETV
attr interpolationmode none
attr title "end-to-end delay of arrived packets, vector"
attr unit s
vector 3 Net5.rte[0].app endToEndDelay:vector ETV
attr interpolationmode none
attr title "end-to-end delay of arrived packets, vector"
attr unit s
vector 4 Net5.rte[1].app endToEndDelay:vector ETV
attr interpolationmode none
attr title "end-to-end delay of arrived packets, vector"
attr unit s
vector 5 Net5.rte[4].app endToEndDelay:vector ETV
attr interpolationmode none
attr title "end-to-end delay of arrived packets, vector"
attr unit s
vector 6 Net5.rte[9].app endToEndDelay:vector ETV
attr interpolationmode none
attr title "end-to-end delay of arrived packets, vector"
attr unit s
vector 7 Net5.rte[5].app endToEndDelay:vector ETV
attr interpolationmode none
attr title "end-to-end delay of arrived packets, vector"
attr unit s
vector 8 Net5.rte[6].app endToEndDelay:vector ETV
attr interpolationmode none
attr title "end-to-end delay of arrived packets, vector"
attr unit s
vector 9 Net5.rte[7].app endToEndDelay:vector ETV
attr interpolationmode none
attr title "end-to-end delay of arrived packets, vector"
attr unit s
0	7	5.199042867969	0.101666666667
0	23	5.402376201303	0.101666666667
0	163	5.609042867971	0.105000000001
0	428	6.342542436924	0.206666666668
0	631	6.547542436925	0.208333333335
0	681	6.583911442017	0.206666666668
0	696	6.593911442019	0.318333333337
0	774	6.778200907544	0.21666666667
0	878	7.173200907543	0.205000000001
0	936	7.507684686853	0.203333333334
0	1064	7.726103756164	0.105000000001
0	1171	7.914373575743	0.203333333334
0	1202	7.917706909077	0.206666666668
0	1234	7.927770422831	0.205000000001
0	1483	8.835268256906	0.105000000001
0	1515	8.845268256908	0.21666666667
0	1682	9.748002959926	0.208333333335
0	1823	10.161336293262	0.31666666667
0	1955	10.754781466622	0.208333333335
0	2142	10.977991367112	0.206666666668
0	2203	11.079658033779	0.105000000001
0	2221	11.168114799958	0.31666666667
0	2262	11.648362158298	0.203333333334
0	2298	12.05507326941	0.203377777778
0	2631	12.409366748049	0.206666666668
0	2646	12.419366748051	0.318333333337
0	2675	12.473406602747	0.215000000003
0	2718	13.091370997418	0.203333333334
0	2769	13.308987531778	0.203333333334
0	2819	13.498104330752	0.203333333334
0	2850	13.501437664086	0.206666666668
0	3118	14.911418771658	0.206666666668
0	3209	15.116418771659	0.208333333335
0	3418	15.769547208884	0.208333333335
0	3541	15.909240998076	0.21666666667
0	3695	16.094851882476	0.106666666668
0	3742	16.18288054222	0.31666666667
0	3858	16.296518549143	0.105000000001
0	3878	16.304240998075	0.205000000001
0	4012	20.00966480045	0.203333333334
0	4088	20.167233320101	0.21666666667
0	4180	20.360566653433	0.105000000001
0	4197	20.416398133784	0.2034
0	4443	20.826398133786	0.206666666668
0	4604	21.110836604765	0.206666666668
0	4657	21.124872522875	0.106666666668
0	4785	21.315836604766	0.208333333335
0	4821	21.326539189542	0.105000000001
0	4917	21.666919734994	0.203333333334
0	4981	21.805090498973	0.205000000001
0	5083	22.073697512772	0.203444444444
0	5145	22.120090498976	0.215000000003
0	5357	22.482030846107	0.205000000001
0	5394	22.487861420514	0.105000000001
0	5551	22.836882987459	0.203333333334
0	5602	23.004528087184	0.31666666667
0	5680	23.243682987459	0.203333333334
0	5710	23.247016320793	0.206666666668
0	5943	26.364260783275	0.206666666668
0	6040	26.569260783276	0.208333333335
0	6156	26.817828602206	0.208333333335
0	6226	27.027828602208	0.215000000003
0	6409	28.125480547375	0.205000000001
0	6455	28.228813880709	0.206666666668
0	6550	28.709466053002	0.205000000001
0	6641	28.914466053003	0.105000000001
0	6867	30.210283949456	0.318333333337
0	6900	30.301950616121	0.105000000001
0	6987	30.612004589489	0.203333333334
0	7018	30.688682787075	0.105000000001
0	7156	31.018849033935	0.203511111112
0	7202	31.103682787078	0.31666666667
0	7362	31.42718236727	0.205000000001
0	7501	31.85136294717	0.205000000001
0	7605	32.166362947173	0.31666666667
0	7617	32.298072796981	0.101666666667
0	7662	32.501495019204	0.101666666667
0	7708	32.506495019205	0.106666666668
0	8025	36.366695077787	0.205000000001
1	13	5.300709534636	0.101666666667
1	62	5.50404286797	0.101666666667
1	100	5.507376201304	0.105000000001
1	335	6.23920910359	0.103333333334
1	528	6.442542436924	0.103333333334
1	678	6.58224477535	0.205000000001
1	693	6.587244775351	0.311666666669
1	788	6.869867574209	0.308333333335
1	836	7.069867574209	0.101666666667
1	930	7.417759311718	0.101666666667
1	952	7.621103756163	0.101677777778
1	1090	7.814373575743	0.103333333334
1	1127	7.824437089497	0.101666666667
1	1268	8.017706909077	0.103333333334
1	1534	8.935268256906	0.205000000001
1	1549	8.940268256907	0.311666666669
1	1635	9.643002959925	0.103333333334
1	1817	10.153002959927	0.308333333335
1	1891	10.567946922666	0.203333333334
1	1908	10.649781466621	0.103333333334
1	2108	10.974658033778	0.203333333334
1	2141	10.977991367112	0.206666666668
1	2218	11.159781466623	0.308333333335
1	2375	12.158406602744	0.103333333334
1	2628	12.407700081382	0.205000000001
1	2643	12.412700081383	0.311666666669
1	2685	12.565073269412	0.306666666668
1	2785	13.398104330752	0.103333333334
1	2891	13.601437664086	0.103333333334
1	3052	14.808085438324	0.103333333334
1	3159	15.011418771658	0.103333333334
1	3317	15.581496326918	0.203333333334
1	3338	15.664547208883	0.103333333334
1	3582	15.988185215808	0.203355555556
1	3623	16.000907664741	0.308333333335
1	3739	16.174547208885	0.308333333335
1	3799	16.200907664741	0.101666666667
1	3903	16.396518549143	0.205000000001
1	3957	19.645433320098	0.305000000001
1	4100	20.255566653432	0.305000000001
1	4131	20.258899986766	0.308333333335
1	4269	20.519731467118	0.103333333334
1	4309	20.611494745095	0.203333333334
1	4440	20.824731467119	0.205000000001
1	4506	21.007503271431	0.103333333334
1	4534	21.018205856207	0.203377777778
1	4682	21.210836604765	0.103333333334
1	4851	21.426539189542	0.205000000001
1	4933	21.701757165639	0.101666666667
1	4968	21.772794753845	0.305000000001
1	5168	22.178697512773	0.105000000001
1	5197	22.211757165641	0.306666666668
1	5272	22.378697512773	0.101666666667
1	5290	22.382861420513	0.305066666667
1	5599	22.996194753849	0.308333333335
1	5654	23.143682987459	0.103333333334
1	5741	23.347016320793	0.103333333334
1	5878	26.260927449941	0.103333333334
1	5987	26.464260783275	0.103333333334
1	6151	26.814495268872	0.205000000001
1	6236	27.119495268873	0.306666666668
1	6328	28.022147214041	0.101666666667
1	6452	28.227147214042	0.205000000001
1	6508	28.606132719668	0.101666666667
1	6661	29.014466053003	0.205000000001
1	6695	29.586717282787	0.305000000001
1	6828	30.19695061612	0.305000000001
1	6863	30.201950616121	0.310000000002
1	7062	30.788682787075	0.205000000001
1	7199	31.095349453743	0.308333333335
1	7225	31.123849033936	0.105000000001
1	7313	31.323849033936	0.101666666667
1	7445	31.748029613836	0.101666666667
1	7602	32.158029613838	0.308333333335
1	7611	32.196406130314	0.101666666667
1	7623	32.399828352537	0.101755555556
1	7731	32.604828352538	0.103333333334
1	7970	36.263361744453	0.101666666667
1	8028	36.368261744452	0.101666666667
1	8144	36.571695077786	0.101766666667
2	92	5.505709534637	0.103333333334
2	201	5.709042867971	0.205000000001
2	423	6.340875770257	0.205000000001
2	527	6.442542436924	0.103333333334
2	571	6.480578108683	0.103333333334
2	601	6.487244775351	0.211666666669
2	720	6.668200907542	0.106666666668
2	904	7.27486757421	0.306666666668
2	1138	7.826103756164	0.205000000001
2	1233	7.927770422831	0.205000000001
2	1267	8.017706909077	0.103333333334
2	1269	8.017706909077	0.306666666668
2	1344	8.526934923571	0.101666666667
2	1391	8.730268256905	0.101666666667
2	1426	8.735268256906	0.106666666668
2	1641	9.644669626592	0.105000000001
2	1790	10.053002959927	0.208333333335
2	1914	10.651448133288	0.105000000001
2	2052	10.874658033778	0.103333333334
2	2163	11.059781466623	0.208333333335
2	2233	11.179658033779	0.205000000001
2	2381	12.160073269411	0.105000000001
2	2536	12.306033414715	0.103333333334
2	2566	12.312700081383	0.211666666669
2	2589	12.363406602745	0.105000000001
2	2890	13.601437664086	0.103333333334
2	2892	13.601437664086	0.306666666668
2	3113	14.909752104991	0.205000000001
2	3158	15.011418771658	0.103333333334
2	3344	15.66621387555	0.105000000001
2	3429	15.784829660252	0.203333333334
2	3447	15.799240998074	0.106666666668
2	3647	16.074547208885	0.208333333335
2	3748	16.191518549142	0.203333333334
2	3784	16.194851882476	0.206666666668
2	3916	16.405907664742	0.306666666668
2	4030	20.057233320099	0.106666666668
2	4236	20.460566653433	0.205000000001
2	4275	20.521398133785	0.105000000001
2	4398	20.723064800452	0.103333333334
2	4428	20.814828078429	0.203333333334
2	4681	21.210836604765	0.103333333334
2	4683	21.210836604765	0.306666666668
2	4713	21.221539189541	0.203333333334
2	4749	21.224872522875	0.206666666668
2	4987	21.80675716564	0.206666666668
2	5056	22.010090498974	0.105000000001
2	5162	22.177030846106	0.103333333334
2	5423	22.583697512774	0.306666666668
2	5434	22.587861420514	0.205000000001
2	5572	22.896194753849	0.208333333335
2	5705	23.245349654126	0.205000000001
2	5740	23.347016320793	0.103333333334
2	5986	26.464260783275	0.103333333334
2	5988	26.464260783275	0.306666666668
2	6111	26.714495268872	0.105000000001
2	6176	26.917828602206	0.105000000001
2	6407	28.125480547375	0.103333333334
2	6436	28.132147214043	0.211666666669
2	6440	28.199366053001	0.305000000001
2	6572	28.809466053002	0.305000000001
2	6603	28.812799386336	0.308333333335
2	6805	30.101950616121	0.210000000002
2	6822	30.17694945374	0.203333333334
2	6921	30.401950616121	0.205000000001
2	6954	30.583682787074	0.2034
2	7139	30.995349453743	0.208333333335
2	7219	31.122182367269	0.103333333334
2	7390	31.528849033937	0.306666666668
2	7508	31.853029613837	0.206666666668
2	7575	32.058029613838	0.208333333335
2	7730	32.604828352538	0.103333333334
2	7767	32.613161685873	0.213333333336
2	7953	36.207107022338	0.203333333334
2	8024	36.366695077787	0.205000000001
3	140	5.605709534637	0.203333333334
3	225	5.748200907538	0.406666666668
3	231	5.809042867971	0.305000000001
3	518	6.440875770257	0.305000000001
3	618	6.542542436924	0.203333333334
3	639	6.561534240874	0.406666666668
3	674	6.580578108683	0.203333333334
3	692	6.587244775351	0.311666666669
3	923	7.37486757421	0.406666666668
3	1226	7.926103756164	0.305000000001
3	1299	8.027770422831	0.305000000001
3	1304	8.117706909077	0.406666666668
3	1308	8.119373575744	0.205000000001
3	1338	8.425268256904	0.101666666667
3	1354	8.628601590238	0.101666666667
3	1466	8.831934923572	0.101666666667
3	1673	9.744669626592	0.205000000001
3	1811	10.149669626593	0.305000000001
3	1946	10.751448133288	0.205000000001
3	2109	10.974658033778	0.203333333334
3	2212	11.156448133289	0.305000000001
3	2245	11.279658033779	0.305000000001
3	2276	11.851695491632	0.203333333334
3	2469	12.258406602744	0.203333333334
3	2492	12.260073269411	0.205000000001
3	2624	12.406033414715	0.203333333334
3	2642	12.412700081383	0.311666666669
3	2924	13.701437664086	0.406666666668
3	2928	13.703104330753	0.205000000001
3	3080	14.879107664738	0.406666666668
3	3149	15.009752104991	0.305000000001
3	3196	15.111418771658	0.203333333334
3	3369	15.692574331406	0.4068
3	3409	15.76621387555	0.205000000001
3	3733	16.171213875551	0.305000000001
3	3836	16.293185215809	0.101666666667
3	3850	16.294851882476	0.306666666668
3	3928	16.505907664742	0.406666666668
3	3943	19.340433320097	0.305000000001
3	3979	19.950566653431	0.305133333333
3	4296	20.560566653433	0.305000000001
3	4343	20.621398133785	0.205000000001
3	4436	20.823064800452	0.203333333334
3	4761	21.294923832306	0.305000000001
3	4769	21.310836604765	0.406666666668
3	4773	21.312503271432	0.205000000001
3	4799	21.323205856208	0.101666666667
3	4813	21.324872522875	0.306666666668
3	5007	21.905090498973	0.305000000001
3	5029	21.90675716564	0.306666666668
3	5212	22.277030846106	0.203333333334
3	5466	22.683697512774	0.406666666668
3	5472	22.687861420514	0.305000000001
3	5593	22.992861420515	0.305000000001
3	5731	23.345349654126	0.305000000001
3	5766	23.447016320793	0.203333333334
3	5965	26.406028602205	0.203333333334
3	6024	26.564260783275	0.406666666668
3	6028	26.565927449942	0.205000000001
3	6125	26.812828602205	0.203333333334
3	6150	26.814495268872	0.205000000001
3	6448	28.225480547375	0.203333333334
3	6461	28.232147214043	0.311666666669
3	6621	28.911132719669	0.101666666667
3	6635	28.912799386336	0.408333333335
3	6853	30.198617282787	0.306666666668
3	6941	30.501950616121	0.305000000001
3	7000	30.685349453741	0.101666666667
3	7193	31.092016120409	0.305000000001
3	7253	31.222182367269	0.203333333334
3	7403	31.628849033937	0.406666666668
3	7532	31.953029613837	0.306666666668
3	7596	32.154696280504	0.305000000001
3	7772	32.704828352538	0.203333333334
3	7799	32.713161685873	0.313333333336
3	7844	34.669102303151	0.203333333334
3	8086	36.466695077787	0.305000000001
4	142	5.605709534637	0.101666666667
4	154	5.607376201304	0.205000000001
4	310	6.154867574206	0.406666666668
4	328	6.237542436923	0.101666666667
4	619	6.542542436924	0.203333333334
4	675	6.580578108683	0.203333333334
4	687	6.585578108684	0.310000000002
4	800	6.968200907542	0.406666666668
4	823	6.969867574209	0.408333333335
4	913	7.304351353519	0.203333333334
4	985	7.711040242409	0.203355555556
4	1026	7.72277042283	0.101666666667
4	1126	7.824437089497	0.101666666667
4	1305	8.117706909077	0.203333333334
4	1563	9.035268256906	0.305000000001
4	1566	9.040268256907	0.411666666669
4	1669	9.743002959925	0.203333333334
4	1814	10.15133629326	0.306666666668
4	1942	10.749781466621	0.203333333334
4	2134	10.976324700445	0.205000000001
4	2187	11.076324700445	0.101666666667
4	2215	11.158114799956	0.306666666668
4	2470	12.258406602744	0.203333333334
4	2625	12.406033414715	0.203333333334
4	2637	12.411033414716	0.310000000002
4	2697	12.665073269412	0.406666666668
4	2708	12.888037664084	0.203333333334
4	2736	13.294770997418	0.2034
4	2925	13.701437664086	0.203333333334
4	3045	14.806418771657	0.101666666667
4	3197	15.111418771658	0.203333333334
4	3247	15.285774331406	0.406666666668
4	3405	15.764547208883	0.203333333334
4	3671	16.089851882475	0.101666666667
4	3700	16.099240998074	0.406666666668
4	3723	16.100907664741	0.408333333335
4	3736	16.172880542218	0.306666666668
4	3925	16.496518549143	0.305000000001
4	4161	20.357233320099	0.101666666667
4	4173	20.358899986766	0.408333333335
4	4248	20.497392160319	0.203333333334
4	4318	20.619731467118	0.203333333334
4	4437	20.823064800452	0.203333333334
4	4453	20.904169938097	0.203444444444
4	4633	21.119872522874	0.101666666667
4	4770	21.310836604765	0.203333333334
4	4873	21.526539189542	0.305000000001
4	4932	21.701757165639	0.101666666667
4	4997	21.870253068328	0.203333333334
4	5211	22.277030846106	0.203333333334
4	5235	22.278697512773	0.205000000001
4	5266	22.311757165641	0.406666666668
4	5370	22.48452808718	0.101666666667
4	5596	22.994528087182	0.306666666668
4	5647	23.142016320792	0.101666666667
4	5767	23.447016320793	0.203333333334
4	5801	25.750794116607	0.203333333334
4	5829	26.157594116607	0.203466666666
4	6025	26.564260783275	0.203333333334
4	6126	26.812828602205	0.203333333334
4	6248	27.219495268873	0.406666666668
4	6279	27.894366053	0.305000000001
4	6327	28.022147214041	0.101666666667
4	6449	28.225480547375	0.203333333334
4	6472	28.504466053001	0.3051
4	6674	29.114466053003	0.305000000001
4	6858	30.200283949454	0.308333333335
4	6884	30.298617282787	0.101666666667
4	7079	30.815337922823	0.203333333334
4	7087	30.888682787075	0.305000000001
4	7196	31.093682787076	0.306666666668
4	7252	31.222182367269	0.203333333334
4	7276	31.223849033936	0.205000000001
4	7444	31.748029613836	0.101666666667
4	7599	32.156362947171	0.306666666668
4	7663	32.501495019204	0.101666666667
4	7773	32.704828352538	0.203333333334
4	7830	34.488130433451	0.203333333334
4	7894	36.059928411119	0.101666666667
4	7968	36.263361744453	0.101666666667
4	7978	36.26502841112	0.103333333334
4	8089	36.469928411119	0.101666666667
5	143	5.605709534637	0.101666666667
5	181	5.612376201305	0.210000000002
5	219	5.729209103588	0.203333333334
5	277	6.135875770256	0.203333333334
5	579	6.48224477535	0.105000000001
5	602	6.487244775351	0.211666666669
5	625	6.545875770258	0.206666666668
5	791	6.873200907543	0.311666666669
5	850	7.073200907543	0.105000000001
5	942	7.519425978385	0.101666666667
5	1024	7.72277042283	0.101666666667
5	1054	7.724437089497	0.103333333334
5	1098	7.81604024241	0.105000000001
5	1314	8.121040242411	0.206666666668
5	1530	8.933601590239	0.203333333334
5	1550	8.940268256907	0.311666666669
5	1676	9.746336293259	0.206666666668
5	1793	10.054669626594	0.210000000002
5	1949	10.753114799955	0.206666666668
5	2066	10.877991367112	0.106666666668
5	2166	11.06144813329	0.210000000002
5	2188	11.076324700445	0.101666666667
5	2496	12.261739936078	0.206666666668
5	2544	12.307700081382	0.105000000001
5	2567	12.312700081383	0.211666666669
5	2688	12.568406602746	0.310000000002
5	2793	13.399770997419	0.105000000001
5	2872	13.512320865112	0.203333333334
5	2934	13.70477099742	0.206666666668
5	2962	14.298018771656	0.203333333334
5	2998	14.70475210499	0.2034
5	3203	15.114752104992	0.206666666668
5	3412	15.767880542217	0.206666666668
5	3626	16.004240998075	0.311666666669
5	3650	16.076213875552	0.210000000002
5	3672	16.089851882475	0.101666666667
5	3813	16.204240998075	0.105000000001
5	3899	16.394851882476	0.203333333334
5	4137	20.2622333201	0.311666666669
5	4162	20.357233320099	0.101666666667
5	4348	20.623064800452	0.206666666668
5	4406	20.724731467119	0.105000000001
5	4490	20.989923832305	0.305000000001
5	4514	21.009169938098	0.105000000001
5	4634	21.119872522874	0.101666666667
5	4779	21.314169938099	0.206666666668
5	4847	21.424872522875	0.203333333334
5	4884	21.600090498972	0.305166666666
5	5200	22.215090498975	0.310000000002
5	5250	22.282030846107	0.208333333335
5	5286	22.382030846107	0.105000000001
5	5383	22.486194753847	0.103333333334
5	5454	22.633549654125	0.203333333334
5	5460	22.636779720629	0.203333333334
5	5575	22.897861420516	0.210000000002
5	5608	23.040349654125	0.203466666666
5	5773	23.450349654127	0.206666666668
5	5886	26.262594116608	0.105000000001
5	6034	26.567594116609	0.206666666668
5	6112	26.714495268872	0.105000000001
5	6239	27.122828602207	0.310000000002
5	6263	27.717091658485	0.101666666667
5	6285	27.920480547374	0.101722222222
5	6418	28.127147214042	0.105000000001
5	6528	28.611132719669	0.106666666668
5	6657	29.012799386336	0.203333333334
5	6808	30.103617282788	0.211666666669
5	6885	30.298617282787	0.101666666667
5	7061	30.788682787075	0.205000000001
5	7142	30.99701612041	0.210000000002
5	7288	31.22718236727	0.208333333335
5	7303	31.239607391613	0.203333333334
5	7327	31.32718236727	0.105000000001
5	7406	31.646362947169	0.203422222222
5	7578	32.059696280505	0.210000000002
5	7664	32.501495019204	0.101666666667
5	7781	32.708161685872	0.206666666668
5	7872	35.958261744452	0.101666666667
5	7915	36.161695077786	0.101766666667
6	144	5.605709534637	0.101666666667
6	182	5.612376201305	0.210000000002
6	249	5.932542436922	0.203333333334
6	398	6.33920910359	0.203333333334
6	435	6.344209103591	0.208333333335
6	686	6.585578108684	0.208333333335
6	699	6.595578108686	0.320000000004
6	777	6.779867574211	0.218333333337
6	882	7.17486757421	0.206666666668
6	1027	7.72277042283	0.101666666667
6	1209	7.919373575744	0.208333333335
6	1237	7.929437089498	0.206666666668
6	1320	8.122706909078	0.208333333335
6	1469	8.831934923572	0.101666666667
6	1518	8.846934923575	0.218333333337
6	1521	8.929669626589	0.305000000001
6	1587	9.539669626591	0.305000000001
6	1733	9.936414799952	0.305000000001
6	1827	10.163002959929	0.318333333337
6	1858	10.546448133287	0.305033333334
6	2147	10.979658033779	0.208333333335
6	2189	11.076324700445	0.101666666667
6	2224	11.169781466625	0.318333333337
6	2503	12.263406602745	0.208333333335
6	2636	12.411033414716	0.208333333335
6	2649	12.421033414718	0.320000000004
6	2678	12.475073269414	0.21666666667
6	2857	13.503104330753	0.208333333335
6	2940	13.706437664087	0.208333333335
6	2976	14.50135210499	0.203333333334
6	3088	14.908085438324	0.203333333334
6	3125	14.913085438325	0.208333333335
6	3135	14.949716521726	0.305000000001
6	3284	15.561213875549	0.305033333334
6	3544	15.910907664743	0.218333333337
6	3673	16.089851882475	0.101666666667
6	3745	16.184547208887	0.318333333337
6	3839	16.293185215809	0.101666666667
6	3882	16.305907664742	0.206666666668
6	4091	20.168899986768	0.218333333337
6	4163	20.357233320099	0.101666666667
6	4356	20.624731467119	0.208333333335
6	4372	20.700725493653	0.203333333334
6	4446	20.828064800453	0.208333333335
6	4573	21.107503271431	0.203333333334
6	4611	21.112503271432	0.208333333335
6	4635	21.119872522874	0.101666666667
6	4802	21.323205856208	0.101666666667
6	4988	21.80675716564	0.206666666668
6	5148	22.121757165643	0.21666666667
6	5259	22.283697512774	0.210000000002
6	5361	22.483697512774	0.206666666668
6	5375	22.485364179441	0.102502758928
6	5605	23.006194753851	0.318333333337
6	5717	23.24868298746	0.208333333335
6	5779	23.452016320794	0.208333333335
6	5811	25.954127449941	0.203333333334
6	5912	26.360927449941	0.203333333334
6	5950	26.365927449942	0.208333333335
6	6160	26.819495268873	0.210000000002
6	6229	27.029495268875	0.21666666667
6	6419	28.127147214042	0.206666666668
6	6458	28.230480547376	0.208333333335
6	6557	28.711132719669	0.206666666668
6	6624	28.911132719669	0.101666666667
6	6870	30.211950616123	0.320000000004
6	6886	30.298617282787	0.101666666667
6	7002	30.685349453741	0.101666666667
6	7205	31.105349453745	0.318333333337
6	7296	31.228849033937	0.210000000002
6	7366	31.428849033937	0.206666666668
6	7509	31.853029613837	0.206666666668
6	7608	32.16802961384	0.318333333337
6	7665	32.501495019204	0.101666666667
6	7790	32.709828352539	0.208333333335
6	8033	36.368361744454	0.206666666668
7	165	5.609042867971	0.206666666668
7	202	5.709042867971	0.205000000001
7	316	6.173911442015	0.101666666667
7	343	6.240875770257	0.105000000001
7	449	6.377244775349	0.101666666667
7	499	6.387244775351	0.111666666669
7	624	6.545875770258	0.206666666668
7	763	6.773200907543	0.211666666669
7	885	7.176534240877	0.208333333335
7	1145	7.827770422831	0.105000000001
7	1158	7.832770422832	0.211666666669
7	1210	7.919373575744	0.208333333335
7	1313	8.121040242411	0.206666666668
7	1477	8.833601590239	0.103333333334
7	1504	8.840268256907	0.211666666669
7	1681	9.748002959926	0.208333333335
7	1759	9.954669626594	0.110000000002
7	1844	10.364613589332	0.203333333334
7	1954	10.754781466622	0.208333333335
7	1966	10.771324700444	0.203377777778
7	2091	10.96144813329	0.110000000002
7	2234	11.179658033779	0.205000000001
7	2292	11.999344525825	0.101666666667
7	2402	12.202700081381	0.101666666667
7	2452	12.212700081383	0.111666666669
7	2502	12.263406602745	0.208333333335
7	2664	12.468406602746	0.210000000002
7	2858	13.503104330753	0.208333333335
7	2933	13.70477099742	0.206666666668
7	3060	14.809752104991	0.105000000001
7	3202	15.114752104992	0.206666666668
7	3417	15.769547208884	0.208333333335
7	3530	15.904240998075	0.211666666669
7	3567	15.976213875552	0.110000000002
7	3776	16.193185215809	0.205000000001
7	3849	16.294851882476	0.103333333334
7	3885	16.307574331409	0.208333333335
7	4077	20.1622333201	0.211666666669
7	4094	20.212998133784	0.203333333334
7	4237	20.460566653433	0.205000000001
7	4317	20.619731467118	0.203333333334
7	4355	20.624731467119	0.208333333335
7	4612	21.112503271432	0.208333333335
7	4741	21.223205856208	0.205000000001
7	4778	21.314169938099	0.206666666668
7	4812	21.324872522875	0.103333333334
7	4953	21.70675716564	0.106666666668
7	5134	22.115090498975	0.210000000002
7	5240	22.28036417944	0.206666666668
7	5376	22.485364179441	0.208333333335
7	5440	22.589528087181	0.206666666668
7	5536	22.797861420516	0.110000000002
7	5662	23.145349654126	0.105000000001
7	5772	23.450349654127	0.206666666668
7	5862	26.202695268871	0.203333333334
7	5951	26.365927449942	0.208333333335
7	6033	26.567594116609	0.206666666668
7	6048	26.609495268871	0.203466666666
7	6215	27.022828602207	0.210000000002
7	6273	27.818758325152	0.101666666667
7	6326	28.022147214041	0.101666666667
7	6371	28.027147214042	0.106666666668
7	6561	28.714466053003	0.210000000002
7	6634	28.912799386336	0.103333333334
7	6770	30.003617282788	0.111666666669
7	6922	30.401950616121	0.205000000001
7	7017	30.688682787075	0.105000000001
7	7108	30.89701612041	0.110000000002
7	7281	31.225515700603	0.206666666668
7	7369	31.430515700604	0.208333333335
7	7465	31.753029613837	0.106666666668
7	7548	31.959696280505	0.110000000002
7	7732	32.604828352538	0.205000000001
7	7780	32.708161685872	0.206666666668
7	7824	34.465768969817	0.203333333334
7	7847	34.691463766785	0.203333333334
7	7990	36.266695077787	0.105000000001
7	8124	36.522218133451	0.111666666669
8	212	5.712376201305	0.310000000002
8	234	5.812376201305	0.308333333335
8	436	6.344209103591	0.208333333335
8	563	6.478911442016	0.101666666667
8	605	6.490578108685	0.215000000003
8	702	6.649209103592	0.310000000002
8	794	6.876534240877	0.315000000003
8	907	7.279867574211	0.311666666669
8	1240	7.931103756165	0.208333333335
8	1246	7.936103756166	0.315000000003
8	1292	8.022706909078	0.311666666669
8	1328	8.224373575745	0.310000000002
8	1537	8.936934923573	0.206666666668
8	1553	8.943601590241	0.315000000003
8	1573	9.23466962659	0.305000000001
8	1697	9.844669626592	0.305000000001
8	1722	9.85133629326	0.311666666669
8	2024	10.858114799956	0.311666666669
8	2043	10.872991367111	0.101666666667
8	2169	11.064781466624	0.213333333336
8	2248	11.282991367113	0.308333333335
8	2528	12.304366748048	0.101666666667
8	2570	12.316033414717	0.215000000003
8	2599	12.366739936079	0.311666666669
8	2691	12.57173993608	0.313333333336
8	2915	13.606437664087	0.311666666669
8	2948	13.808104330754	0.310000000002
8	3126	14.913085438325	0.208333333335
8	3229	15.218085438326	0.310000000002
8	3235	15.254513875548	0.203333333334
8	3241	15.256180542215	0.306464020489
8	3474	15.86621387555	0.305000000001
8	3499	15.872880542218	0.311666666669
8	3629	16.007574331409	0.315000000003
8	3860	16.296518549143	0.308333333335
8	3906	16.39818521581	0.206666666668
8	3919	16.410907664743	0.311666666669
8	4140	20.265566653434	0.315000000003
8	4299	20.563899986767	0.308333333335
8	4390	20.721398133785	0.101666666667
8	4414	20.728064800453	0.311666666669
8	4706	21.215836604766	0.311666666669
8	4823	21.326539189542	0.308333333335
8	4838	21.417503271433	0.310000000002
8	4854	21.428205856209	0.206666666668
8	4991	21.810090498974	0.210000000002
8	5110	22.077794753846	0.305000000001
8	5203	22.218423832309	0.313333333336
8	5317	22.383697512774	0.310000000002
8	5437	22.588697512775	0.311666666669
8	5471	22.687861420514	0.305000000001
8	5496	22.692861420515	0.310000000002
8	5718	23.24868298746	0.208333333335
8	5787	23.553682987461	0.310000000002
8	6011	26.469260783276	0.311666666669
8	6081	26.670927449943	0.310000000002
8	6095	26.711161935538	0.101666666667
8	6242	27.126161935541	0.313333333336
8	6397	28.123813880708	0.101666666667
8	6430	28.130480547376	0.210000000002
8	6609	28.817799386337	0.313333333336
8	6664	29.01613271967	0.206666666668
8	6811	30.106950616122	0.215000000003
8	6909	30.380282787074	0.203333333334
8	6944	30.505283949455	0.308333333335
8	7035	30.787016120408	0.203333333334
8	7067	30.792016120409	0.208333333335
8	7335	31.328849033937	0.310000000002
8	7393	31.533849033938	0.311666666669
8	7514	31.856362947171	0.210000000002
8	7581	32.063029613839	0.213333333336
8	7782	32.708161685872	0.308333333335
8	7802	32.811495019206	0.310000000002
8	8037	36.370028411121	0.208333333335
9	216	5.714042867972	0.311666666669
9	237	5.814042867972	0.310000000002
9	271	6.072244775348	0.101666666667
9	363	6.275578108682	0.101666666667
9	441	6.345875770258	0.210000000002
9	564	6.478911442016	0.101666666667
9	705	6.650875770259	0.311666666669
9	797	6.878200907544	0.31666666667
9	910	7.281534240878	0.313333333336
9	1243	7.932770422832	0.210000000002
9	1249	7.937770422833	0.31666666667
9	1296	8.024373575745	0.313333333336
9	1331	8.226040242412	0.311666666669
9	1543	8.93860159024	0.208333333335
9	1556	8.945268256908	0.31666666667
9	1726	9.853002959927	0.313333333336
9	1796	10.058002959928	0.213333333336
9	1830	10.241414799953	0.305000000001
9	1999	10.851448133288	0.305000000001
9	2028	10.859781466623	0.313333333336
9	2044	10.872991367111	0.101666666667
9	2251	11.28465803378	0.310000000002
9	2282	11.897677859158	0.101666666667
9	2331	12.101033414714	0.101688888889
9	2529	12.304366748048	0.101666666667
9	2606	12.368406602746	0.313333333336
9	2694	12.573406602747	0.315000000003
9	2919	13.608104330754	0.313333333336
9	2951	13.809770997421	0.311666666669
9	3131	14.914752104992	0.210000000002
9	3232	15.219752104993	0.311666666669
9	3269	15.457847208882	0.203333333334
9	3503	15.874547208885	0.313333333336
9	3632	16.009240998076	0.31666666667
9	3653	16.079547208886	0.213333333336
9	3867	16.29818521581	0.310000000002
9	3909	16.399851882477	0.208333333335
9	3922	16.41257433141	0.313333333336
9	4143	20.267233320101	0.31666666667
9	4302	20.565566653434	0.310000000002
9	4391	20.721398133785	0.101666666667
9	4417	20.72973146712	0.313333333336
9	4710	21.217503271433	0.313333333336
9	4830	21.328205856209	0.310000000002
9	4841	21.4191699381	0.311666666669
9	4857	21.429872522876	0.208333333335
9	4994	21.811757165641	0.211666666669
9	5206	22.220090498976	0.315000000003
9	5328	22.385364179441	0.311666666669
9	5443	22.590364179442	0.313333333336
9	5500	22.694528087182	0.311666666669
9	5557	22.840113053963	0.203333333334
9	5578	22.90119475385	0.213333333336
9	5723	23.250349654127	0.210000000002
9	5790	23.555349654128	0.311666666669
9	6015	26.470927449943	0.313333333336
9	6084	26.67259411661	0.311666666669
9	6096	26.711161935538	0.101666666667
9	6245	27.127828602208	0.315000000003
9	6398	28.123813880708	0.101666666667
9	6437	28.132147214043	0.211666666669
9	6612	28.819466053004	0.315000000003
9	6667	29.017799386337	0.208333333335
9	6681	29.281717282786	0.305000000001
9	6709	29.891950616119	0.305233333332
9	6947	30.506950616122	0.310000000002
9	7071	30.793682787076	0.210000000002
9	7145	31.000349453744	0.213333333336
9	7342	31.330515700604	0.311666666669
9	7380	31.442940724947	0.203333333334
9	7396	31.535515700605	0.313333333336
9	7476	31.849696280503	0.203333333334
9	7518	31.858029613838	0.211666666669
9	7791	32.709828352539	0.310000000002
9	7805	32.813161685873	0.311666666669
9	7882	36.003773689004	0.203333333334
9	8040	36.371695077788	0.210000000002
9	8047	36.410551466782	0.203444444444

