version 2
run General-42-20190529-16:33:09-5628
attr configname General
attr datetime 20190529-16:33:09
attr experiment General
attr inifile omnetpp.ini
attr iterationvars ""
attr iterationvarsf ""
attr measurement ""
attr network networks.Net5
attr processid 5628
attr repetition 42
attr replication #42
attr resultdir results
attr runnumber 42
attr seedset 42
param **.appType "\"App\""
param **.app.packetLength "1500 bytes"
param **.app.totalNodes 3
param **.destAddresses "\"0\""
param **.sendIaTime "uniform(5s, 10s)"
param **.sendIaTimeEvil 10ms

vector 0 Net5.rte[2].app endToEndDelay:vector ETV
attr interpolationmode none
attr title "end-to-end delay of arrived packets, vector"
attr unit s
vector 1 Net5.rte[0].app endToEndDelay:vector ETV
attr interpolationmode none
attr title "end-to-end delay of arrived packets, vector"
attr unit s
vector 2 Net5.rte[1].app endToEndDelay:vector ETV
attr interpolationmode none
attr title "end-to-end delay of arrived packets, vector"
attr unit s
0	7	6.974367238215	0.101666666667
0	19	7.177700571549	0.101666666667
0	49	7.381033904883	0.101666666667
0	56	9.08438158767	0.101666666667
0	68	9.287714921004	0.101666666667
0	98	9.491048254338	0.101666666667
0	111	9.956904891146	0.101666666667
0	131	10.160260446702	0.101666666667
0	141	10.161927113369	0.103333333334
0	154	14.203531025776	0.101666666667
0	176	14.406886581332	0.101688888889
0	209	14.610219914666	0.101666666667
0	222	17.962479948032	0.101666666667
0	242	18.16585772581	0.101666666667
0	252	18.167524392477	0.103333333334
0	265	19.306453519601	0.101666666667
0	277	19.509820186268	0.1017
0	307	19.713153519602	0.101666666667
0	314	22.462207179849	0.101666666667
0	326	22.665562735405	0.101688888889
0	356	22.868896068739	0.101666666667
0	369	25.586262130377	0.101666666667
0	381	25.789673241488	0.101666666667
0	468	30.047601575764	0.101666666667
0	488	30.152557131319	0.101666666667
0	520	30.355934909097	0.101711111111
1	13	7.076033904882	0.101666666667
1	33	7.279367238216	0.101666666667
1	43	7.281033904883	0.103333333334
1	83	9.389381587671	0.101666666667
1	97	9.491048254338	0.101666666667
1	105	9.855238224479	0.101666666667
1	117	10.058593780035	0.101688888889
1	146	10.261927113369	0.101666666667
1	164	14.305197692443	0.101666666667
1	170	14.374799643044	0.101666666667
1	193	14.508553247999	0.101666666667
1	203	14.510219914666	0.103333333334
1	243	18.16585772581	0.101666666667
1	257	18.267524392477	0.101666666667
1	271	19.408120186268	0.101666666667
1	291	19.611486852935	0.101666666667
1	301	19.613153519602	0.103333333334
1	341	22.767229402072	0.101666666667
1	355	22.868896068739	0.101666666667
1	392	25.891339908155	0.101666666667
1	411	29.742557131319	0.101666666667
1	443	29.945934909097	0.101711111111
2	34	7.279367238216	0.101666666667
2	48	7.381033904883	0.101666666667
2	62	9.186048254337	0.101666666667
2	82	9.389381587671	0.101666666667
2	92	9.391048254338	0.103333333334
2	132	10.160260446702	0.101666666667
2	147	10.261927113369	0.101666666667
2	188	14.476466309711	0.101666666667
2	194	14.508553247999	0.101666666667
2	208	14.610219914666	0.101666666667
2	216	17.860813281365	0.101666666667
2	228	18.064191059143	0.101711111111
2	258	18.267524392477	0.101666666667
2	292	19.611486852935	0.101666666667
2	306	19.713153519602	0.101666666667
2	320	22.563873846516	0.101666666667
2	340	22.767229402072	0.101666666667
2	350	22.768896068739	0.103333333334
2	363	25.48459546371	0.101666666667
2	375	25.688006574821	0.101744444444
2	393	25.891339908155	0.101666666667
2	427	29.844223797986	0.101666666667
2	467	30.047601575764	0.101666666667
2	471	30.049268242431	0.103333333334
2	504	30.254223797986	0.101666666667

