version 2
run General-39-20190529-16:33:08-7720
attr configname General
attr datetime 20190529-16:33:08
attr experiment General
attr inifile omnetpp.ini
attr iterationvars ""
attr iterationvarsf ""
attr measurement ""
attr network networks.Net5
attr processid 7720
attr repetition 39
attr replication #39
attr resultdir results
attr runnumber 39
attr seedset 39
param **.appType "\"App\""
param **.app.packetLength "1500 bytes"
param **.app.totalNodes 3
param **.destAddresses "\"0\""
param **.sendIaTime "uniform(5s, 10s)"
param **.sendIaTimeEvil 10ms

vector 0 Net5.rte[0].app endToEndDelay:vector ETV
attr interpolationmode none
attr title "end-to-end delay of arrived packets, vector"
attr unit s
vector 1 Net5.rte[1].app endToEndDelay:vector ETV
attr interpolationmode none
attr title "end-to-end delay of arrived packets, vector"
attr unit s
vector 2 Net5.rte[2].app endToEndDelay:vector ETV
attr interpolationmode none
attr title "end-to-end delay of arrived packets, vector"
attr unit s
0	7	5.130000452844	0.101666666667
0	19	5.333333786178	0.101666666667
0	48	5.536667119512	0.101666666667
0	62	7.937779124327	0.101666666667
0	82	8.141123568772	0.101666666667
0	92	8.142790235439	0.103333333334
0	132	9.396161753384	0.101666666667
0	146	9.497828420051	0.101666666667
0	181	12.269481847596	0.101666666667
0	195	12.371148514263	0.101666666667
0	209	15.295007855598	0.101666666667
0	239	19.313391908871	0.101666666667
0	271	19.516769686649	0.101711111111
1	13	5.231667119511	0.101666666667
1	33	5.435000452845	0.101666666667
1	43	5.436667119512	0.103333333334
1	56	7.83611245766	0.101666666667
1	68	8.039456902105	0.101677777778
1	97	8.242790235439	0.101666666667
1	105	9.091161753383	0.101666666667
1	117	9.294495086717	0.101666666667
1	147	9.497828420051	0.101666666667
1	160	12.066115180929	0.101666666667
1	180	12.269481847596	0.101666666667
1	190	12.271148514263	0.103333333334
1	203	15.193341188931	0.101666666667
1	216	16.738160390739	0.101666666667
1	255	19.415058575538	0.101666666667
1	295	19.618436353316	0.101666666667
1	299	19.620103019983	0.103333333334
1	332	19.825058575538	0.101666666667
2	34	5.435000452845	0.101666666667
2	49	5.536667119512	0.101666666667
2	83	8.141123568772	0.101666666667
2	98	8.242790235439	0.101666666667
2	111	9.19282842005	0.101666666667
2	131	9.396161753384	0.101666666667
2	141	9.397828420051	0.103333333334
2	154	11.964448514262	0.101666666667
2	166	12.167815180929	0.1017
2	196	12.371148514263	0.101666666667
2	222	16.839827057406	0.101666666667
2	296	19.618436353316	0.101666666667
2	316	19.723391908871	0.101666666667
2	348	19.926769686649	0.101711111111

