version 2
run General-12-20190529-16:32:56-18280
attr configname General
attr datetime 20190529-16:32:56
attr experiment General
attr inifile omnetpp.ini
attr iterationvars ""
attr iterationvarsf ""
attr measurement ""
attr network networks.Net5
attr processid 18280
attr repetition 12
attr replication #12
attr resultdir results
attr runnumber 12
attr seedset 12
param **.appType "\"App\""
param **.app.packetLength "1500 bytes"
param **.app.totalNodes 3
param **.destAddresses "\"0\""
param **.sendIaTime "uniform(5s, 10s)"
param **.sendIaTimeEvil 10ms

vector 0 Net5.rte[2].app endToEndDelay:vector ETV
attr interpolationmode none
attr title "end-to-end delay of arrived packets, vector"
attr unit s
vector 1 Net5.rte[0].app endToEndDelay:vector ETV
attr interpolationmode none
attr title "end-to-end delay of arrived packets, vector"
attr unit s
vector 2 Net5.rte[1].app endToEndDelay:vector ETV
attr interpolationmode none
attr title "end-to-end delay of arrived packets, vector"
attr unit s
0	7	5.872480874748	0.101666666667
0	19	6.075814208082	0.101666666667
0	49	6.279147541416	0.101666666667
0	83	7.637775393369	0.101666666667
0	98	7.739442060036	0.101666666667
0	111	8.90358179036	0.101666666667
0	131	9.106926234805	0.101666666667
0	141	9.108592901472	0.103333333334
0	181	13.846200040409	0.101666666667
0	196	13.947866707076	0.101666666667
0	203	14.085166757793	0.101666666667
0	215	14.28853342446	0.1017
0	245	14.491866757794	0.101666666667
0	258	18.407156073222	0.101666666667
0	288	20.94933906417	0.101666666667
0	320	21.152716841948	0.101711111111
1	13	5.974147541415	0.101666666667
1	33	6.177480874749	0.101666666667
1	43	6.179147541416	0.103333333334
1	56	7.332775393368	0.101666666667
1	68	7.536108726702	0.101666666667
1	97	7.739442060036	0.101666666667
1	132	9.106926234805	0.101666666667
1	146	9.208592901472	0.101666666667
1	160	13.642844484853	0.101666666667
1	180	13.846200040409	0.101666666667
1	190	13.847866707076	0.103333333334
1	230	14.390200091127	0.101666666667
1	244	14.491866757794	0.101666666667
1	271	19.055466533605	0.101666666667
1	345	21.254383508615	0.101666666667
1	365	21.35933906417	0.101666666667
1	397	21.562716841948	0.101711111111
2	34	6.177480874749	0.101666666667
2	48	6.279147541416	0.101666666667
2	62	7.434442060035	0.101666666667
2	82	7.637775393369	0.101666666667
2	92	7.639442060036	0.103333333334
2	105	8.801915123693	0.101666666667
2	117	9.005259568138	0.101677777778
2	147	9.208592901472	0.101666666667
2	154	13.541177818186	0.101666666667
2	166	13.744533373742	0.101688888889
2	195	13.947866707076	0.101666666667
2	209	14.18683342446	0.101666666667
2	229	14.390200091127	0.101666666667
2	239	14.391866757794	0.103333333334
2	252	18.305489406555	0.101666666667
2	265	18.953799866938	0.101666666667
2	304	21.051005730837	0.101666666667
2	344	21.254383508615	0.101666666667
2	348	21.256050175282	0.103333333334
2	381	21.461005730837	0.101666666667

