version 2
run General-49-20190607-15:42:44-15004
attr configname General
attr datetime 20190607-15:42:44
attr experiment General
attr inifile omnetpp.ini
attr iterationvars ""
attr iterationvarsf ""
attr measurement ""
attr network networks.Net5
attr processid 15004
attr repetition 49
attr replication #49
attr resultdir results
attr runnumber 49
attr seedset 49
param **.appType "\"App\""
param **.app.packetLength "1500 bytes"
param **.app.totalNodes 10
param **.destAddresses "\"0\""
param **.sendIaTime "uniform(5s, 10s)"
param **.sendIaTimeEvil 10ms

vector 0 Net5.rte[2].app endToEndDelay:vector ETV
attr interpolationmode none
attr title "end-to-end delay of arrived packets, vector"
attr unit s
vector 1 Net5.rte[5].app endToEndDelay:vector ETV
attr interpolationmode none
attr title "end-to-end delay of arrived packets, vector"
attr unit s
vector 2 Net5.rte[4].app endToEndDelay:vector ETV
attr interpolationmode none
attr title "end-to-end delay of arrived packets, vector"
attr unit s
vector 3 Net5.rte[6].app endToEndDelay:vector ETV
attr interpolationmode none
attr title "end-to-end delay of arrived packets, vector"
attr unit s
vector 4 Net5.rte[1].app endToEndDelay:vector ETV
attr interpolationmode none
attr title "end-to-end delay of arrived packets, vector"
attr unit s
vector 5 Net5.rte[9].app endToEndDelay:vector ETV
attr interpolationmode none
attr title "end-to-end delay of arrived packets, vector"
attr unit s
vector 6 Net5.rte[3].app endToEndDelay:vector ETV
attr interpolationmode none
attr title "end-to-end delay of arrived packets, vector"
attr unit s
vector 7 Net5.rte[7].app endToEndDelay:vector ETV
attr interpolationmode none
attr title "end-to-end delay of arrived packets, vector"
attr unit s
vector 8 Net5.rte[8].app endToEndDelay:vector ETV
attr interpolationmode none
attr title "end-to-end delay of arrived packets, vector"
attr unit s
vector 9 Net5.rte[0].app endToEndDelay:vector ETV
attr interpolationmode none
attr title "end-to-end delay of arrived packets, vector"
attr unit s
0	11	6.174411894022	0.203333333334
0	36	6.58107856069	0.203333333334
0	279	6.911488939941	0.406666666668
0	295	6.991078560692	0.206666666668
0	418	7.105220422607	0.205000000001
0	490	7.308553755941	0.306666666668
0	532	7.724822273277	0.406666666668
0	800	8.18535247121	0.206666666668
0	920	8.387019137877	0.205000000001
0	980	8.53982227328	0.408333333335
0	1188	9.524815268581	0.101666666667
0	1355	9.723829296343	0.306666666668
0	1490	9.927162629677	0.306666666668
0	1499	9.933829296345	0.307347361097
0	1660	10.140507074124	0.101666666667
0	1679	10.143840407458	0.206666666668
0	1805	10.276394961714	0.208333333335
0	1889	10.476394961714	0.205000000001
0	1964	12.354584233104	0.101666666667
0	1976	12.429886627344	0.101666666667
0	2090	12.636553294012	0.206666666668
0	2328	14.713432111604	0.306666666668
0	2366	14.815098778271	0.306666666668
0	2571	15.480408151287	0.308333333335
0	2652	15.683741484621	0.308333333335
0	2886	16.209838612092	0.410000000002
0	3045	16.411505278759	0.205000000001
0	3168	16.59766163633	0.306666666668
0	3287	16.800994969664	0.408333333335
0	3331	16.904058199789	0.310000000002
0	3456	17.307391533123	0.306666666668
0	3473	17.765258174256	0.101666666667
0	3485	17.968624840923	0.1017
0	3599	18.171958174257	0.101666666667
0	3652	18.19939480672	0.203333333334
0	3711	18.606128140054	0.2034
0	3896	19.014461473389	0.205000000001
0	4214	19.943927252021	0.206666666668
0	4224	19.945593918688	0.30782904923
0	4285	20.046098202793	0.306666666668
0	4338	20.147260585355	0.206666666668
0	4501	21.941273353648	0.206666666668
0	4613	22.347940020316	0.308333333335
0	4763	23.209110060607	0.101666666667
0	4782	23.212443393941	0.206666666668
0	5065	25.185740791142	0.310000000002
0	5161	25.385740791142	0.306666666668
0	5406	25.903317972447	0.306666666668
0	5534	26.106651305781	0.306666666668
0	5580	26.18650504283	0.310000000002
0	5660	26.38650504283	0.205000000001
0	5828	27.237720111407	0.308333333335
0	5898	27.441053444741	0.206666666668
0	5953	27.788608831021	0.305000000001
0	6068	28.398742164355	0.305000000001
0	6092	28.402075497689	0.308333333335
0	6463	31.026995215924	0.205000000001
0	6476	31.035328549259	0.315000000003
0	6567	31.212691051674	0.308333333335
0	6642	31.416024385008	0.308333333335
0	6860	32.390169152626	0.101666666667
0	6879	32.39350248596	0.410000000002
0	7172	33.324936594198	0.310000000002
0	7293	33.450022046144	0.206666666668
0	7320	33.524936594198	0.306666666668
0	7388	33.653355379478	0.206666666668
0	7580	34.093397726599	0.205000000001
0	7656	34.296731059933	0.306666666668
0	7801	34.743835452527	0.208333333335
0	7882	34.943835452527	0.205000000001
0	7931	37.533429059832	0.203333333334
0	8012	37.94020683761	0.203333333334
0	8039	37.943540170944	0.206666666668
0	8154	38.57077165397	0.305000000001
0	8196	39.181004987303	0.305233333332
0	8663	39.61624282804	0.306666666668
0	8807	39.725205513211	0.205000000001
0	8827	39.733538846546	0.315000000003
0	8841	39.794338320639	0.308333333335
0	8861	39.819576161374	0.408333333335
0	9067	41.017665997648	0.101666666667
0	9086	41.020999330982	0.308333333335
0	9392	42.058591100349	0.410000000002
0	9481	42.260257767016	0.306666666668
0	9647	42.744834537709	0.310000000002
0	9849	43.148167871043	0.306666666668
0	9954	43.387451456985	0.410000000002
0	10026	43.589118123652	0.205000000001
0	10071	43.791678056287	0.203333333334
0	10109	44.198500278509	0.203333333334
0	10302	44.598122469744	0.206666666668
0	10417	45.004789136412	0.308333333335
0	10455	46.000732796232	0.203333333334
0	10475	46.407643907344	0.203577777778
0	10660	46.815977240679	0.205000000001
0	10692	47.741242982146	0.406666666668
0	10728	48.450481168326	0.101666666667
0	10741	48.55488742659	0.406977777776
0	11011	49.369887426593	0.408333333335
0	11223	50.17204368087	0.308333333335
0	11318	50.375377014204	0.206666666668
0	11563	50.911093237942	0.305000000001
0	11617	51.01413686736	0.308333333335
0	11737	51.223836867356	0.203333333334
0	12029	51.499137700307	0.101666666667
0	12060	51.521426571277	0.305000000001
0	12088	51.526426571278	0.310000000002
0	12141	51.542743333379	0.410000000002
0	12252	51.633836867356	0.203333333334
0	12383	51.744410000046	0.306666666668
0	12452	51.907471033642	0.306666666668
0	12486	52.040703534024	0.203533333334
1	22	6.377745227356	0.203333333334
1	126	6.784411894024	0.203333333334
1	163	6.792745227359	0.211666666669
1	436	7.108553755941	0.208333333335
1	493	7.311887089275	0.310000000002
1	629	7.936488939946	0.211666666669
1	805	8.188685804544	0.210000000002
1	927	8.392019137878	0.210000000002
1	983	8.544822273281	0.413333333336
1	1189	9.524815268581	0.101666666667
1	1333	9.661350517267	0.203333333334
1	1366	9.727162629677	0.310000000002
1	1493	9.930495963011	0.310000000002
1	1529	9.938829296346	0.312347361098
1	1619	10.068061628379	0.203377777778
1	1661	10.140507074124	0.101666666667
1	1694	10.148840407459	0.211666666669
1	1895	10.479728295048	0.208333333335
1	1919	12.226531071788	0.101666666667
1	1973	12.429886627344	0.101666666667
1	2003	12.431553294011	0.103333333334
1	2338	14.716765444938	0.310000000002
1	2369	14.818432111605	0.310000000002
1	2582	15.483741484621	0.311666666669
1	2659	15.688741484622	0.313333333336
1	2892	16.214838612093	0.415000000003
1	3052	16.41650527876	0.210000000002
1	3177	16.600994969664	0.310000000002
1	3301	16.805994969665	0.413333333336
1	3338	16.90905819979	0.315000000003
1	3459	17.310724866457	0.310000000002
1	3600	18.171958174257	0.101666666667
1	3633	18.180291507592	0.211666666669
1	3824	18.817794806723	0.211666666669
1	3902	19.017794806723	0.208333333335
1	3940	19.533860585353	0.203333333334
1	4181	19.940593918687	0.203333333334
1	4237	19.94776486946	0.310000000002
1	4242	19.949431536127	0.212170950774
1	4299	20.049431536127	0.310000000002
1	4504	21.944606686982	0.210000000002
1	4620	22.352940020317	0.313333333336
1	4764	23.209110060607	0.101666666667
1	4797	23.217443393942	0.211666666669
1	5083	25.190740791143	0.315000000003
1	5167	25.389074124476	0.310000000002
1	5417	25.906651305781	0.310000000002
1	5537	26.109984639115	0.310000000002
1	5589	26.191505042831	0.315000000003
1	5666	26.389838376164	0.208333333335
1	5684	26.624253444739	0.305000000001
1	5802	27.234386778073	0.305000000001
1	5833	27.241053444741	0.311666666669
1	6097	28.405408831023	0.311666666669
1	6151	28.608742164357	0.210000000002
1	6466	31.030328549258	0.208333333335
1	6479	31.038661882593	0.318333333337
1	6578	31.216024385008	0.311666666669
1	6649	31.421024385009	0.313333333336
1	6861	32.390169152626	0.101666666667
1	6890	32.398502485961	0.415000000003
1	6998	33.039910935032	0.203333333334
1	7185	33.329936594199	0.315000000003
1	7266	33.44668871281	0.203333333334
1	7303	33.455022046145	0.211666666669
1	7326	33.528269927532	0.310000000002
1	7591	34.096731059933	0.208333333335
1	7610	34.128702119192	0.203333333334
1	7659	34.300064393267	0.310000000002
1	7689	34.535502119192	0.203466666666
1	7890	34.948835452528	0.210000000002
1	8044	37.946873504278	0.210000000002
1	8105	38.150206837612	0.210000000002
1	8334	39.392671653972	0.211666666669
1	8670	39.619576161374	0.310000000002
1	8813	39.728538846545	0.208333333335
1	8830	39.73687217988	0.318333333337
1	8848	39.79933832064	0.313333333336
1	8864	39.824576161375	0.413333333336
1	9068	41.017665997648	0.101666666667
1	9097	41.024332664316	0.311666666669
1	9411	42.06359110035	0.415000000003
1	9484	42.26359110035	0.310000000002
1	9628	42.6529377805	0.305000000001
1	9654	42.74983453771	0.315000000003
1	9852	43.151501204377	0.310000000002
1	9960	43.392451456986	0.415000000003
1	10034	43.594118123653	0.210000000002
1	10222	44.408500278511	0.210000000002
1	10305	44.601455803078	0.210000000002
1	10424	45.009789136413	0.313333333336
1	10588	46.619310574013	0.211666666669
1	10666	46.819310574013	0.208333333335
1	10828	48.766554093259	0.211666666669
1	11014	49.374887426594	0.413333333336
1	11028	49.558477014203	0.305000000001
1	11198	50.168710347536	0.305000000001
1	11228	50.175377014204	0.311666666669
1	11621	51.017470200694	0.311666666669
1	12030	51.499137700307	0.101666666667
1	12099	51.531426571279	0.315000000003
1	12157	51.54774333338	0.415000000003
1	12357	51.731426571279	0.210000000002
1	12386	51.74774333338	0.310000000002
1	12456	51.910804366976	0.310000000002
2	93	6.689411894025	0.108333333335
2	218	6.892745227359	0.108333333335
2	363	7.005220422607	0.105000000001
2	467	7.208553755941	0.206666666668
2	587	7.833155606612	0.108333333335
2	725	8.08535247121	0.106666666668
2	868	8.288685804544	0.106666666668
2	949	8.441488939947	0.310000000002
2	1036	9.016481935246	0.203333333334
2	1110	9.423148601914	0.203333333334
2	1265	9.623829296343	0.206666666668
2	1436	9.827162629677	0.206666666668
2	1460	9.835009027006	0.101666666667
2	1466	9.835495963012	0.209014027764
2	1557	10.038840407457	0.101666666667
2	1602	10.045507074125	0.108333333335
2	1725	10.178061628381	0.110000000002
2	1859	10.376394961714	0.105000000001
2	1909	12.124864405121	0.101666666667
2	1925	12.252917566437	0.101666666667
2	1931	12.328219960677	0.101688888889
2	2061	12.538219960679	0.108333333335
2	2280	14.613432111604	0.206666666668
2	2332	14.715098778271	0.206666666668
2	2531	15.380408151287	0.208333333335
2	2622	15.585408151288	0.210000000002
2	2832	16.111505278759	0.311666666669
2	2956	16.313171945426	0.106666666668
2	3085	16.49766163633	0.206666666668
2	3238	16.702661636331	0.310000000002
2	3298	16.805724866456	0.211666666669
2	3439	17.207391533123	0.206666666668
2	3479	17.866924840923	0.101666666667
2	3522	18.07029150759	0.101666666667
2	3562	18.076958174258	0.108333333335
2	3760	18.714461473389	0.108333333335
2	3866	18.914461473389	0.105000000001
2	4134	19.844431536126	0.206666666668
2	4139	19.845593918688	0.108333333335
2	4229	19.946098202793	0.206666666668
2	4296	20.048927252022	0.108333333335
2	4480	21.841273353648	0.106666666668
2	4591	22.249606686983	0.210000000002
2	4653	22.904065616162	0.101666666667
2	4696	23.10744339394	0.101666666667
2	4738	23.114110060608	0.108333333335
2	5007	25.087407457809	0.211666666669
2	5122	25.285740791142	0.206666666668
2	5336	25.803317972447	0.206666666668
2	5479	26.006651305781	0.206666666668
2	5513	26.088171709497	0.211666666669
2	5630	26.28650504283	0.105000000001
2	5784	27.137720111407	0.208333333335
2	5865	27.342720111408	0.108333333335
2	6055	28.302075497689	0.208333333335
2	6117	28.505408831023	0.106666666668
2	6386	30.926995215924	0.105000000001
2	6407	30.935328549259	0.215000000003
2	6527	31.112691051674	0.208333333335
2	6614	31.317691051675	0.210000000002
2	6680	31.678335819292	0.305000000001
2	6800	32.288502485959	0.305000000001
2	6838	32.295169152627	0.311666666669
2	7089	33.226603260865	0.211666666669
2	7217	33.351688712811	0.108333333335
2	7246	33.424936594198	0.206666666668
2	7352	33.555022046145	0.108333333335
2	7537	33.993397726599	0.105000000001
2	7628	34.196731059933	0.206666666668
2	7746	34.645502119194	0.110000000002
2	7849	34.845502119194	0.106666666668
2	7999	37.843540170944	0.106666666668
2	8068	38.046873504278	0.106666666668
2	8257	39.289338320638	0.108333333335
2	8513	39.51624282804	0.206666666668
2	8712	39.625205513211	0.105000000001
2	8741	39.633538846546	0.215000000003
2	8765	39.696004987306	0.210000000002
2	8791	39.721242828041	0.310000000002
2	8911	40.509199330981	0.203333333334
2	9002	40.915999330981	0.203333333334
2	9039	40.920999330982	0.208333333335
2	9339	41.960257767016	0.311666666669
2	9442	42.160257767016	0.206666666668
2	9614	42.646501204376	0.211666666669
2	9793	43.048167871043	0.206666666668
2	9908	43.289118123652	0.311666666669
2	9995	43.490784790319	0.106666666668
2	10155	44.305166945177	0.106666666668
2	10265	44.498122469744	0.106666666668
2	10395	44.906455803079	0.210000000002
2	10524	46.515977240679	0.108333333335
2	10630	46.715977240679	0.105000000001
2	10738	48.552147834993	0.101666666667
2	10790	48.663220759925	0.108333333335
2	10990	49.27155409326	0.310000000002
2	11170	50.07204368087	0.208333333335
2	11270	50.277043680871	0.108333333335
2	11574	50.91413686736	0.208333333335
2	11600	50.990648811418	0.203333333334
2	11886	51.39747103364	0.203488888888
2	11941	51.428093237945	0.211666666669
2	12001	51.444410000046	0.311666666669
2	12234	51.628093237945	0.106666666668
2	12282	51.644410000046	0.206666666668
2	12403	51.807471033642	0.206666666668
3	111	6.696887089272	0.101666666667
3	167	6.794411894026	0.213333333336
3	242	6.900220422606	0.101666666667
3	302	6.996078560693	0.211666666669
3	425	7.106887089274	0.105000000001
3	518	7.572019137874	0.203333333334
3	632	7.938155606613	0.213333333336
3	647	7.978685804542	0.203333333334
3	902	8.343155606614	0.211666666669
3	930	8.393685804545	0.211666666669
3	1176	9.523829296343	0.106666666668
3	1218	9.529815268582	0.106666666668
3	1376	9.728829296344	0.108333333335
3	1410	9.734815268583	0.108333333335
3	1481	9.864683850601	0.203333333334
3	1677	10.143840407458	0.105000000001
3	1698	10.150507074126	0.213333333336
3	1770	10.271394961713	0.203333333334
3	1814	10.281394961715	0.213333333336
3	2013	12.433219960678	0.105000000001
3	2097	12.641553294013	0.211666666669
3	2230	14.515098778271	0.108333333335
3	2292	14.616765444938	0.108333333335
3	2466	15.277074817953	0.105000000001
3	2662	15.690408151289	0.315000000003
3	2796	16.013171945426	0.213333333336
3	3025	16.399328302997	0.108333333335
3	3055	16.418171945427	0.211666666669
3	3189	16.604328302998	0.211666666669
3	3341	16.910724866457	0.31666666667
3	3417	17.10905819979	0.108333333335
3	3614	18.175291507591	0.105000000001
3	3637	18.181958174259	0.213333333336
3	3700	18.402728140054	0.203333333334
3	3783	18.809461473388	0.203333333334
3	3827	18.81946147339	0.213333333336
3	4069	19.746098202793	0.108333333335
3	4154	19.84776486946	0.108333333335
3	4246	19.950593918689	0.213333333336
3	4345	20.152260585356	0.211666666669
3	4394	21.124540020312	0.305000000001
3	4422	21.73460668698	0.305066666667
3	4623	22.354606686984	0.315000000003
3	4780	23.212443393941	0.105000000001
3	4801	23.219110060609	0.213333333336
3	5053	25.184074124475	0.105000000001
3	5087	25.19240745781	0.31666666667
3	5204	25.571338376162	0.305000000001
3	5279	25.703317972447	0.106666666668
3	5421	25.908317972448	0.108333333335
3	5548	26.181505042829	0.305000000001
3	5592	26.193171709498	0.31666666667
3	5758	27.039386778074	0.110000000002
3	5905	27.446053444742	0.211666666669
3	6018	28.198742164355	0.105000000001
3	6154	28.610408831024	0.211666666669
3	6216	30.618595215923	0.101666666667
3	6267	30.821995215923	0.101666666667
3	6314	30.830328549258	0.110000000002
3	6437	31.00935771834	0.105000000001
3	6652	31.422691051676	0.315000000003
3	6786	32.196835819294	0.213333333336
3	6877	32.39350248596	0.105000000001
3	7160	33.323269927531	0.105000000001
3	7188	33.331603260866	0.31666666667
3	7307	33.456688712812	0.213333333336
3	7395	33.658355379479	0.211666666669
3	7410	33.685008837709	0.101666666667
3	7451	33.888397726598	0.101722222222
3	7597	34.0983977266	0.108333333335
3	7811	34.748835452528	0.213333333336
3	7893	34.950502119195	0.211666666669
3	7921	37.330095726498	0.203333333334
3	7941	37.736873504276	0.203444444444
3	8108	38.151873504279	0.211666666669
3	8310	39.316772179876	0.101666666667
3	8337	39.394338320639	0.213333333336
3	8399	39.417909494707	0.108333333335
3	8529	39.52020551321	0.101666666667
3	8600	39.528538846545	0.110000000002
3	8695	39.622909494708	0.211666666669
3	8851	39.801004987307	0.315000000003
3	8985	40.822665997649	0.110000000002
3	9084	41.020999330982	0.105000000001
3	9284	41.861924433683	0.213333333336
3	9390	42.058591100349	0.105000000001
3	9657	42.751501204377	0.31666666667
3	9738	42.94983453771	0.108333333335
3	9879	43.190784790319	0.213333333336
3	10037	43.59578479032	0.211666666669
3	10062	43.781155803074	0.305000000001
3	10178	44.391455803076	0.305300000001
3	10225	44.410166945178	0.211666666669
3	10427	45.01145580308	0.315000000003
3	10465	46.204066129566	0.203333333334
3	10547	46.610977240678	0.203333333334
3	10591	46.62097724068	0.213333333336
3	10831	48.768220759926	0.213333333336
3	10962	49.173220759927	0.211666666669
3	11118	49.968710347536	0.105000000001
3	11325	50.380377014205	0.211666666669
3	11522	50.815803534027	0.110000000002
3	11867	51.346076666713	0.213333333336
3	12051	51.504137700308	0.106666666668
3	12106	51.533093237946	0.31666666667
3	12139	51.542743333379	0.105000000001
3	12329	51.709137700309	0.108333333335
3	12360	51.733093237946	0.211666666669
4	153	6.787745227358	0.206666666668
4	291	6.989411894025	0.205000000001
4	406	7.10355375594	0.203333333334
4	408	7.10355375594	0.101666666667
4	565	7.775352471208	0.203333333334
4	622	7.931488939945	0.206666666668
4	771	8.182019137876	0.203333333334
4	796	8.183685804543	0.205000000001
4	977	8.538155606613	0.406666666668
4	1154	9.518829296342	0.101666666667
4	1187	9.524815268581	0.101666666667
4	1403	9.733342360339	0.101666666667
4	1487	9.92549596301	0.305000000001
4	1496	9.932162629678	0.30568069443
4	1506	9.93717374079	0.102164713784
4	1659	10.140507074124	0.101666666667
4	1800	10.274728295047	0.206666666668
4	1886	10.474728295047	0.203333333334
4	1975	12.429886627344	0.101666666667
4	2087	12.634886627345	0.205000000001
4	2320	14.711765444937	0.305000000001
4	2363	14.813432111604	0.305000000001
4	2458	15.275408151286	0.103333333334
4	2548	15.393083056534	0.406666666668
4	2565	15.47874148462	0.103333333334
4	2858	16.206505278758	0.406666666668
4	2882	16.208171945425	0.408333333335
4	3159	16.595994969663	0.305000000001
4	3223	16.699058199788	0.105000000001
4	3283	16.799328302997	0.406666666668
4	3453	17.305724866456	0.305000000001
4	3598	18.171958174257	0.101666666667
4	3622	18.176958174258	0.208333333335
4	3813	18.812794806722	0.206666666668
4	3893	19.012794806722	0.203333333334
4	3920	19.330527252019	0.203333333334
4	3989	19.737260585353	0.2034
4	4208	19.942764869459	0.305000000001
4	4277	20.044431536126	0.305000000001
4	4334	20.145593918688	0.205000000001
4	4498	21.939606686981	0.205000000001
4	4548	22.142940020315	0.103333333334
4	4647	22.802398949495	0.101666666667
4	4659	23.005776727273	0.101711111111
4	4762	23.209110060607	0.101666666667
4	4874	24.725793671528	0.101666666667
4	4926	24.980740791141	0.105000000001
4	5036	25.180740791141	0.101666666667
4	5257	25.698317972446	0.101666666667
4	5440	25.981505042829	0.105000000001
4	5531	26.104984639114	0.305000000001
4	5657	26.384838376163	0.203333333334
4	5824	27.23605344474	0.306666666668
4	5895	27.439386778074	0.205000000001
4	6010	28.197075497688	0.103333333334
4	6144	28.603742164356	0.205000000001
4	6429	31.007691051673	0.103333333334
4	6460	31.025328549257	0.203333333334
4	6473	31.033661882592	0.313333333336
4	6561	31.211024385007	0.103333333334
4	6859	32.390169152626	0.101666666667
4	6886	32.395169152627	0.411666666669
4	6951	32.836577601698	0.203333333334
4	7012	33.119936594197	0.105000000001
4	7107	33.243355379476	0.203444444444
4	7143	33.319936594197	0.101666666667
4	7384	33.651688712811	0.205000000001
4	7567	34.091731059932	0.203333333334
4	7653	34.295064393266	0.305000000001
4	7666	34.332035452526	0.203333333334
4	7672	34.386098302269	0.305000000001
4	7768	34.738835452526	0.203333333334
4	7797	34.74216878586	0.206666666668
4	8035	37.941873504277	0.205000000001
4	8098	38.145206837611	0.205000000001
4	8327	39.387671653971	0.206666666668
4	8621	39.589338320638	0.103333333334
4	8655	39.614576161373	0.305000000001
4	8800	39.723538846544	0.203333333334
4	8824	39.731872179879	0.313333333336
4	8858	39.817909494707	0.406666666668
4	9066	41.017665997648	0.101666666667
4	9093	41.022665997649	0.310000000002
4	9371	42.055257767015	0.101666666667
4	9381	42.056924433682	0.408333333335
4	9557	42.539834537708	0.105000000001
4	9592	42.570473679207	0.406666666668
4	9846	43.146501204376	0.305000000001
4	9922	43.384118123651	0.406666666668
4	9949	43.385784790318	0.408333333335
4	10020	43.588344722953	0.203333333334
4	10089	43.995166945175	0.203488888888
4	10215	44.40350027851	0.205000000001
4	10299	44.596455803077	0.205000000001
4	10352	44.799789136411	0.103333333334
4	10577	46.614310574012	0.206666666668
4	10657	46.814310574012	0.203333333334
4	10821	48.761554093258	0.206666666668
4	11008	49.368220759926	0.406666666668
4	11110	49.967043680869	0.103333333334
4	11315	50.373710347537	0.205000000001
4	11343	50.400503534024	0.305000000001
4	11608	51.010803534026	0.305000000001
4	11611	51.012470200693	0.306666666668
4	11810	51.321426571277	0.105000000001
4	11937	51.42717020069	0.203333333334
4	12028	51.499137700307	0.101666666667
4	12119	51.539410000045	0.101666666667
4	12130	51.541076666712	0.408333333335
4	12348	51.726426571278	0.205000000001
4	12430	51.83717020069	0.203333333334
4	12449	51.905804366975	0.305000000001
5	179	6.798553755939	0.101666666667
5	266	6.901078560694	0.320000000004
5	322	7.001887089273	0.101666666667
5	355	7.00355375594	0.103333333334
5	396	7.102745227361	0.318333333337
5	697	8.044822273281	0.320000000004
5	709	8.080352471209	0.101666666667
5	856	8.283685804543	0.101666666667
5	960	8.449822273282	0.318333333337
5	1030	9.010495963007	0.203333333334
5	1081	9.417162629675	0.203333333334
5	1316	9.629815268582	0.206666666668
5	1457	9.833829296345	0.213333333336
5	1477	9.839815268584	0.213333333336
5	1559	10.038840407457	0.101666666667
5	1754	10.245507074125	0.206666666668
5	1844	10.37306162838	0.101666666667
5	1880	10.388061628383	0.320000000004
5	2050	12.534886627345	0.206666666668
5	2125	12.748219960681	0.318333333337
5	2306	14.620098778272	0.213333333336
5	2350	14.721765444939	0.213333333336
5	2353	14.765408151284	0.203333333334
5	2411	15.172074817952	0.203333333334
5	2637	15.592074817956	0.21666666667
5	2843	16.119838612094	0.320000000004
5	2944	16.308171945425	0.101666666667
5	3111	16.504328302998	0.213333333336
5	3272	16.710994969666	0.318333333337
5	3319	16.812391533124	0.218333333337
5	3450	17.214058199791	0.213333333336
5	3668	18.276958174258	0.206666666668
5	3687	18.288624840927	0.320000000004
5	3851	18.911128140055	0.101666666667
5	3887	18.926128140058	0.320000000004
5	4092	19.83892725202	0.101666666667
5	4176	19.851098202794	0.213333333336
5	4261	19.952764869461	0.213333333336
5	4376	20.258927252024	0.318333333337
5	4464	21.836273353647	0.101666666667
5	4606	22.256273353651	0.21666666667
5	4698	23.10744339394	0.101666666667
5	4818	23.314110060608	0.206666666668
5	4862	24.624127004861	0.101666666667
5	4868	24.67234079114	0.203333333334
5	4965	25.079074124474	0.203333333334
5	5026	25.094074124477	0.218333333337
5	5078	25.189895750223	0.203333333334
5	5198	25.565661932407	0.305000000001
5	5210	25.596651305779	0.203422222222
5	5490	26.013317972449	0.213333333336
5	5528	26.094838376165	0.218333333337
5	5615	26.283171709496	0.101666666667
5	5795	27.144386778075	0.215000000003
5	5920	27.48360883102	0.305000000001
5	5939	27.55272011141	0.318333333337
5	5967	28.093742164354	0.305133333333
5	6182	28.717075497692	0.318333333337
5	6200	30.497579940561	0.203333333334
5	6329	30.904357718339	0.203444444444
5	6374	30.92366188259	0.101666666667
5	6408	30.935328549259	0.215000000003
5	6629	31.324357718343	0.21666666667
5	6849	32.303502485962	0.320000000004
5	6911	32.495169152627	0.206666666668
5	6945	32.811447705308	0.203333333334
5	7047	33.21826992753	0.203333333334
5	7104	33.233269927533	0.218333333337
5	7201	33.345022046143	0.101666666667
5	7433	33.765022046147	0.318333333337
5	7500	33.990064393265	0.101666666667
5	7642	34.203397726601	0.213333333336
5	7833	34.840502119193	0.101666666667
5	7873	34.855502119196	0.320000000004
5	7983	37.838540170943	0.101666666667
5	8136	38.258540170947	0.318333333337
5	8491	39.501004987307	0.320000000004
5	8574	39.522909494708	0.213333333336
5	8689	39.621872179877	0.101666666667
5	8742	39.633538846546	0.215000000003
5	8780	39.702671653974	0.21666666667
5	8817	39.729576161376	0.318333333337
5	9052	40.92766599765	0.215000000003
5	9120	41.122665997649	0.206666666668
5	9148	41.343324433679	0.305000000001
5	9302	41.953591100348	0.305000000001
5	9355	41.968591100351	0.320000000004
5	9632	42.653167871044	0.218333333337
5	9804	43.054834537711	0.213333333336
5	9919	43.297451456987	0.320000000004
5	9979	43.485784790318	0.101666666667
5	10249	44.493122469743	0.101666666667
5	10289	44.516833611846	0.318333333337
5	10410	44.913122469747	0.21666666667
5	10615	46.712643907345	0.101666666667
5	10651	46.727643907348	0.320000000004
5	10863	48.874887426594	0.320000000004
5	10976	49.253477014202	0.305000000001
5	11001	49.279887426595	0.318333333337
5	11053	49.863710347535	0.305233333332
5	11379	50.487043680873	0.318333333337
5	11534	50.827410000043	0.305000000001
5	11586	50.920803534028	0.215000000003
5	11960	51.434759904613	0.218333333337
5	11963	51.437743333378	0.305000000001
5	12014	51.452743333381	0.320000000004
5	12205	51.604137700308	0.206666666668
5	12415	51.81413770031	0.213333333336
5	12439	51.839759904614	0.318333333337
6	214	6.891078560692	0.310000000002
6	356	7.00355375594	0.103333333334
6	387	7.094411894026	0.310000000002
6	462	7.206887089274	0.205000000001
6	688	8.034822273279	0.310000000002
6	717	8.082019137876	0.103333333334
6	823	8.236488939946	0.105000000001
6	967	8.490352471211	0.308333333335
6	1012	8.823050460478	0.406666666668
6	1058	9.213829296341	0.203333333334
6	1229	9.620495963009	0.203333333334
6	1264	9.623829296343	0.206666666668
6	1315	9.629815268582	0.206666666668
6	1384	9.729815268582	0.103333333334
6	1750	10.243840407458	0.205000000001
6	1764	10.250507074126	0.313333333336
6	1851	10.374728295047	0.103333333334
6	1870	10.379728295048	0.311666666669
6	2042	12.533219960678	0.205000000001
6	2116	12.739886627346	0.310000000002
6	2141	14.305087667158	0.101666666667
6	2182	14.508432111603	0.101666666667
6	2219	14.511765444937	0.105000000001
6	2520	15.377074817953	0.205000000001
6	2683	15.787074817955	0.411666666669
6	2741	15.906505278758	0.106666666668
6	2814	16.087639414106	0.101666666667
6	2905	16.290994969662	0.101688888889
6	3084	16.49766163633	0.105000000001
6	3127	16.514838612093	0.308333333335
6	3382	17.007391533123	0.413333333336
6	3403	17.104058199789	0.103333333334
6	3664	18.275291507591	0.205000000001
6	3678	18.281958174259	0.313333333336
6	3858	18.912794806722	0.103333333334
6	3873	18.916128140056	0.310000000002
6	3946	19.536064869458	0.101666666667
6	4017	19.739431536125	0.101666666667
6	4056	19.742764869459	0.105000000001
6	4292	20.047260585355	0.310000000002
6	4367	20.250593918689	0.310000000002
6	4472	21.837940020314	0.103333333334
6	4634	22.45127335365	0.411666666669
6	4814	23.312443393941	0.205000000001
6	4828	23.319110060609	0.313333333336
6	5114	25.284074124475	0.205000000001
6	5136	25.289074124476	0.413333333336
6	5170	25.393229083557	0.203333333334
6	5300	25.799984639113	0.203333333334
6	5335	25.803317972447	0.206666666668
6	5622	26.284838376163	0.103333333334
6	5641	26.289838376164	0.413333333336
6	5742	27.032720111406	0.103333333334
6	5930	27.544386778075	0.310000000002
6	6046	28.298742164355	0.205000000001
6	6173	28.70707549769	0.308333333335
6	6297	30.82366188259	0.103333333334
6	6381	30.925328549257	0.103333333334
6	6516	31.10935771834	0.205000000001
6	6667	31.519357718342	0.411666666669
6	6739	32.090169152626	0.106666666668
6	6907	32.49350248596	0.205000000001
6	7238	33.423269927531	0.205000000001
6	7260	33.428269927532	0.413333333336
6	7348	33.553355379478	0.310000000002
6	7424	33.756688712812	0.310000000002
6	7436	33.786675504376	0.101666666667
6	7441	33.787856379855	0.101666666667
6	7497	33.990064393265	0.101666666667
6	7536	33.993397726599	0.105000000001
6	7855	34.847168785861	0.311666666669
6	7904	35.047168785861	0.308333333335
6	7991	37.84020683761	0.103333333334
6	8127	38.248540170945	0.308333333335
6	8186	39.106198383594	0.101666666667
6	8280	39.309576161372	0.101711111111
6	8476	39.491004987305	0.310000000002
6	8512	39.51624282804	0.105000000001
6	8566	39.521872179877	0.103333333334
6	8703	39.623538846544	0.103333333334
6	8881	39.897671653973	0.411666666669
6	8969	40.815999330981	0.103333333334
6	9116	41.120999330982	0.205000000001
6	9225	41.755257767015	0.106666666668
6	9437	42.158591100349	0.205000000001
6	9495	42.34325823301	0.101666666667
6	9699	42.848167871043	0.413333333336
6	9724	42.944834537709	0.103333333334
6	9819	43.084118123651	0.106666666668
6	10056	43.692451456986	0.308333333335
6	10257	44.49478913641	0.103333333334
6	10280	44.506833611844	0.308333333335
6	10438	45.108122469746	0.411666666669
6	10622	46.714310574012	0.103333333334
6	10637	46.717643907346	0.310000000002
6	10854	48.864887426592	0.310000000002
6	10915	49.066554093259	0.105000000001
6	11160	50.068710347536	0.205000000001
6	11369	50.478710347538	0.310000000002
6	11501	50.809136867359	0.103333333334
6	11701	51.193982144752	0.203333333334
6	11762	51.239410000045	0.106666666668
6	12170	51.600804366974	0.203333333334
6	12204	51.604137700308	0.206666666668
6	12240	51.629759904612	0.413333333336
6	12277	51.642743333379	0.205000000001
6	12423	51.829759904612	0.308333333335
7	232	6.89774522736	0.31666666667
7	325	7.001887089273	0.101666666667
7	390	7.099411894027	0.315000000003
7	472	7.210220422608	0.208333333335
7	691	8.041488939947	0.31666666667
7	708	8.080352471209	0.101666666667
7	905	8.344822273281	0.213333333336
7	970	8.497019137879	0.315000000003
7	1064	9.21981526858	0.203333333334
7	1272	9.626481935248	0.203333333334
7	1302	9.628148601915	0.21098597224
7	1326	9.633148601916	0.210000000002
7	1345	9.722162629676	0.101666666667
7	1757	10.247173740792	0.208333333335
7	1767	10.25384040746	0.31666666667
7	1843	10.37306162838	0.101666666667
7	1874	10.384728295049	0.31666666667
7	2057	12.536553294012	0.208333333335
7	2119	12.744886627347	0.315000000003
7	2135	14.203421000491	0.101666666667
7	2147	14.406765444936	0.101677777778
7	2261	14.61009877827	0.101666666667
7	2532	15.380408151287	0.208333333335
7	2686	15.793741484623	0.418333333337
7	2799	16.014838612093	0.215000000003
7	2846	16.187302644231	0.406666666668
7	2984	16.392661636329	0.101666666667
7	3130	16.521505278761	0.315000000003
7	3195	16.605994969665	0.213333333336
7	3351	17.000724866455	0.406666666668
7	3388	17.014058199791	0.420000000004
7	3671	18.278624840925	0.208333333335
7	3681	18.285291507593	0.31666666667
7	3850	18.911128140055	0.101666666667
7	3881	18.922794806724	0.31666666667
7	3934	19.434398202791	0.101666666667
7	3956	19.637764869458	0.1017
7	4108	19.841098202792	0.101666666667
7	4319	20.053927252023	0.31666666667
7	4370	20.25559391869	0.315000000003
7	4463	21.836273353647	0.101666666667
7	4637	22.457940020318	0.418333333337
7	4821	23.315776727275	0.208333333335
7	4831	23.322443393943	0.31666666667
7	5128	25.287407457809	0.208333333335
7	5143	25.295740791144	0.420000000004
7	5239	25.602696486449	0.203333333334
7	5347	25.806651305781	0.210000000002
7	5396	25.90165130578	0.101666666667
7	5614	26.283171709496	0.101666666667
7	5645	26.296505042832	0.420000000004
7	5648	26.319253444738	0.305000000001
7	5698	26.929386778072	0.305133333333
7	5933	27.549386778076	0.315000000003
7	6056	28.302075497689	0.208333333335
7	6176	28.713742164358	0.315000000003
7	6206	30.516928549256	0.101666666667
7	6228	30.720328549256	0.101733333333
7	6373	30.92366188259	0.101666666667
7	6528	31.112691051674	0.208333333335
7	6670	31.52602438501	0.418333333337
7	6789	32.198502485961	0.215000000003
7	6914	32.496835819294	0.208333333335
7	7252	33.426603260865	0.208333333335
7	7263	33.4349365942	0.420000000004
7	7366	33.560022046146	0.31666666667
7	7427	33.761688712813	0.315000000003
7	7499	33.990064393265	0.101666666667
7	7570	34.091731059932	0.101666666667
7	7765	34.69109830227	0.305000000001
7	7867	34.852168785862	0.31666666667
7	7907	35.053835452529	0.315000000003
7	7982	37.838540170943	0.101666666667
7	8130	38.255206837613	0.315000000003
7	8235	39.215105513209	0.101666666667
7	8358	39.411242828039	0.101666666667
7	8402	39.418538846543	0.101766666667
7	8483	39.497671653973	0.31666666667
7	8688	39.621872179877	0.101666666667
7	8708	39.624576161375	0.213333333336
7	8884	39.904338320641	0.418333333337
7	8901	40.305865997647	0.203333333334
7	8921	40.712665997647	0.203466666666
7	9123	41.124332664316	0.208333333335
7	9287	41.86359110035	0.215000000003
7	9358	42.027812315483	0.406666666668
7	9447	42.161924433683	0.208333333335
7	9498	42.347937780499	0.305000000001
7	9668	42.841501204375	0.406666666668
7	9705	42.854834537711	0.420000000004
7	9882	43.192451456986	0.215000000003
7	10059	43.699118123654	0.315000000003
7	10248	44.493122469743	0.101666666667
7	10283	44.513500278512	0.315000000003
7	10441	45.114789136414	0.418333333337
7	10614	46.712643907345	0.101666666667
7	10645	46.724310574014	0.31666666667
7	10857	48.87155409326	0.31666666667
7	10965	49.174887426594	0.213333333336
7	11171	50.07204368087	0.208333333335
7	11183	50.095503534023	0.305000000001
7	11373	50.483710347539	0.315000000003
7	11435	50.705803534025	0.305300000001
7	11870	51.34774333338	0.215000000003
7	12210	51.607471033642	0.210000000002
7	12266	51.63642657128	0.420000000004
7	12287	51.646076666713	0.208333333335
7	12310	51.702471033641	0.101666666667
7	12427	51.83642657128	0.315000000003
8	239	6.899411894027	0.318333333337
8	393	7.101078560694	0.31666666667
8	477	7.211887089275	0.210000000002
8	480	7.213553755942	0.313333333336
8	694	8.043155606614	0.318333333337
8	855	8.283685804543	0.101666666667
8	878	8.292019137878	0.313333333336
8	997	8.651488939949	0.520000000004
8	1070	9.229717127146	0.406666666668
8	1295	9.627162629677	0.210000000002
8	1307	9.628829296344	0.20568069443
8	1550	10.037162629679	0.41666666667
8	1558	10.038840407457	0.101666666667
8	1587	10.04216262968	0.415680694432
8	1751	10.243840407458	0.205000000001
8	1877	10.386394961716	0.318333333337
8	1902	10.583061628382	0.311666666669
8	2043	12.533219960678	0.205000000001
8	2122	12.746553294014	0.31666666667
8	2375	14.821765444939	0.415000000003
8	2387	14.923432111606	0.415000000003
8	2390	14.968741484618	0.203333333334
8	2495	15.375408151286	0.203333333334
8	2541	15.383741484621	0.211666666669
8	2673	15.780635977563	0.406666666668
8	2943	16.308171945425	0.101666666667
8	2971	16.321505278761	0.521666666671
8	3133	16.594058199787	0.406755555556
8	3253	16.705994969665	0.415000000003
8	3347	16.912661636333	0.520000000004
8	3466	17.415724866458	0.415000000003
8	3665	18.275291507591	0.205000000001
8	3684	18.28695817426	0.318333333337
8	3884	18.924461473391	0.318333333337
8	3909	19.121128140057	0.311666666669
8	4091	19.83892725202	0.101666666667
8	4312	20.052764869461	0.415000000003
8	4351	20.154431536128	0.415000000003
8	4373	20.257260585357	0.31666666667
8	4408	21.429540020313	0.305000000001
8	4511	22.039606686981	0.305000000001
8	4537	22.047940020316	0.313333333336
8	4697	23.10744339394	0.101666666667
8	4815	23.312443393941	0.205000000001
8	4848	24.469007457806	0.203333333334
8	4881	24.87574079114	0.2034
8	5102	25.266338376161	0.305000000001
8	5135	25.289074124476	0.210000000002
8	5348	25.806651305781	0.210000000002
8	5357	25.876505042828	0.305166666666
8	5599	26.214984639116	0.415000000003
8	5677	26.493171709498	0.311666666669
8	5875	27.346053444742	0.41666666667
8	5936	27.551053444743	0.31666666667
8	6063	28.305408831023	0.211666666669
8	6179	28.715408831025	0.31666666667
8	6222	30.700913273895	0.203333333334
8	6492	31.107691051673	0.203333333334
8	6537	31.116024385008	0.211666666669
8	6544	31.133661882592	0.311666666669
8	6547	31.141995215927	0.421666666671
8	6908	32.49350248596	0.205000000001
8	6917	32.505169152629	0.521666666671
8	6927	32.608114371974	0.203333333334
8	6965	33.014936594196	0.203488888888
8	7200	33.345022046143	0.101666666667
8	7259	33.428269927532	0.210000000002
8	7430	33.76335537948	0.31666666667
8	7635	34.200064393267	0.311666666669
8	7678	34.405064393268	0.415000000003
8	7832	34.840502119193	0.101666666667
8	7870	34.853835452529	0.318333333337
8	8078	38.050206837612	0.313333333336
8	8133	38.25687350428	0.31666666667
8	8168	38.875771653971	0.305000000001
8	8448	39.486004987304	0.305000000001
8	8487	39.49933832064	0.318333333337
8	8804	39.724576161375	0.415000000003
8	8871	39.831872179879	0.311666666669
8	8874	39.840205513214	0.421666666671
8	8887	39.931242828043	0.520000000004
8	9117	41.120999330982	0.205000000001
8	9126	41.129332664317	0.41666666667
8	9170	41.621145648815	0.406666666668
8	9452	42.16359110035	0.210000000002
8	9461	42.170257767018	0.521666666671
8	9508	42.434834537707	0.407022222224
8	9893	43.256501204378	0.415000000003
8	9978	43.485784790318	0.101666666667
8	10010	43.499118123654	0.521666666671
8	10095	44.086155803075	0.305000000001
8	10286	44.515166945179	0.31666666667
8	10315	44.696455803077	0.305000000001
8	10341	44.704789136412	0.313333333336
8	10648	46.725977240681	0.318333333337
8	10673	46.922643907347	0.311666666669
8	10860	48.873220759927	0.318333333337
8	11025	49.481554093262	0.520000000004
8	11178	50.075377014204	0.211666666669
8	11376	50.485377014206	0.31666666667
8	11415	50.606093237941	0.305000000001
8	11657	51.122470200695	0.41666666667
8	11709	51.216426571276	0.305333333334
8	12197	51.602471033641	0.205000000001
8	12292	51.64774333338	0.210000000002
8	12296	51.654410000048	0.521666666671
8	12435	51.838093237947	0.31666666667
8	12480	52.015804366977	0.415000000003
9	292	6.989411894025	0.408333333335
9	405	7.10355375594	0.203333333334
9	453	7.191078560692	0.406666666668
9	487	7.306887089274	0.305000000001
9	496	7.318155606609	0.406666666668
9	736	8.131488939945	0.406666666668
9	758	8.133155606612	0.408333333335
9	772	8.182019137876	0.203333333334
9	990	8.588685804544	0.406666666668
9	1343	9.722162629676	0.101666666667
9	1354	9.723829296343	0.306666666668
9	1386	9.729815268582	0.306666666668
9	1442	9.829815268582	0.203333333334
9	1829	10.343840407458	0.305000000001
9	1832	10.350507074126	0.413333333336
9	1885	10.474728295047	0.203333333334
9	1892	10.478061628381	0.410000000002
9	2082	12.633219960678	0.305000000001
9	2128	12.836553294012	0.406666666668
9	2259	14.61009877827	0.101666666667
9	2271	14.611765444937	0.205000000001
9	2396	14.986416389866	0.406666666668
9	2559	15.477074817953	0.305000000001
9	2689	15.79983861209	0.406755555556
9	2725	15.883741484621	0.508333333335
9	2852	16.189306080773	0.101666666667
9	2982	16.392661636329	0.101666666667
9	3009	16.394328302996	0.103333333334
9	3209	16.613171945426	0.406666666668
9	3405	17.104058199789	0.510000000002
9	3430	17.204058199789	0.203333333334
9	3694	18.375291507591	0.305000000001
9	3697	18.381958174259	0.413333333336
9	3892	19.012794806722	0.203333333334
9	3899	19.016128140056	0.410000000002
9	4106	19.841098202792	0.101666666667
9	4122	19.842764869459	0.205000000001
9	4335	20.145593918688	0.408333333335
9	4379	20.347260585355	0.406666666668
9	4494	21.937940020314	0.203333333334
9	4640	22.547940020316	0.508333333335
9	4834	23.412443393941	0.305000000001
9	4837	23.419110060609	0.413333333336
9	5158	25.384074124475	0.305000000001
9	5164	25.387407457809	0.511666666669
9	5176	25.399363153115	0.203333333334
9	5354	25.870661932408	0.305000000001
9	5394	25.90165130578	0.101666666667
9	5405	25.903317972447	0.306666666668
9	5656	26.384838376163	0.203333333334
9	5663	26.388171709497	0.511666666669
9	5772	27.132720111406	0.203333333334
9	5946	27.641053444741	0.406666666668
9	6069	28.398742164355	0.305000000001
9	6185	28.805408831023	0.406666666668
9	6370	30.92366188259	0.203333333334
9	6459	31.025328549257	0.203333333334
9	6556	31.20935771834	0.305000000001
9	6632	31.373335819291	0.305000000001
9	6677	31.616024385008	0.508333333335
9	6694	31.983502485958	0.305166666666
9	6924	32.59350248596	0.305000000001
9	7317	33.523269927531	0.305000000001
9	7323	33.526603260865	0.511666666669
9	7385	33.651688712811	0.408333333335
9	7448	33.853355379478	0.406666666668
9	7474	33.889523046522	0.101666666667
9	7568	34.091731059932	0.101666666667
9	7579	34.093397726599	0.205000000001
9	7883	34.943835452527	0.408333333335
9	7910	35.145502119194	0.406666666668
9	8013	37.94020683761	0.203333333334
9	8143	38.346873504278	0.406666666668
9	8229	39.207865050261	0.101666666667
9	8356	39.411242828039	0.101666666667
9	8383	39.412909494706	0.103333333334
9	8622	39.589338320638	0.408333333335
9	8685	39.621872179877	0.203333333334
9	8799	39.723538846544	0.203333333334
9	8890	39.994338320639	0.508333333335
9	9003	40.915999330981	0.203333333334
9	9104	41.038324433678	0.305000000001
9	9137	41.220999330982	0.305000000001
9	9176	41.648591100347	0.305266666668
9	9455	42.163807012539	0.406666666668
9	9468	42.241591566343	0.101666666667
9	9478	42.258591100349	0.305000000001
9	9726	42.944834537709	0.510000000002
9	9749	42.977451456983	0.406977777776
9	9784	43.044834537709	0.203333333334
9	10068	43.790784790319	0.406666666668
9	10295	44.59478913641	0.203333333334
9	10312	44.605166945177	0.406666666668
9	10444	45.204789136412	0.508333333335
9	10656	46.814310574012	0.203333333334
9	10663	46.817643907346	0.410000000002
9	10710	48.147909648814	0.406666666668
9	10870	48.961554093258	0.406666666668
9	10892	48.963220759925	0.408333333335
9	11199	50.168710347536	0.305000000001
9	11394	50.522410000042	0.305000000001
9	11405	50.575377014204	0.406666666668
9	11555	50.909136867359	0.203333333334
9	11662	51.132743333377	0.305333333334
9	12308	51.702471033641	0.101666666667
9	12317	51.704137700308	0.306666666668
9	12349	51.726426571278	0.510000000002
9	12380	51.742743333379	0.305000000001
9	12464	51.928093237945	0.406666666668

