version 2
run General-35-20190529-16:33:06-4416
attr configname General
attr datetime 20190529-16:33:06
attr experiment General
attr inifile omnetpp.ini
attr iterationvars ""
attr iterationvarsf ""
attr measurement ""
attr network networks.Net5
attr processid 4416
attr repetition 35
attr replication #35
attr resultdir results
attr runnumber 35
attr seedset 35
param **.appType "\"App\""
param **.app.packetLength "1500 bytes"
param **.app.totalNodes 3
param **.destAddresses "\"0\""
param **.sendIaTime "uniform(5s, 10s)"
param **.sendIaTimeEvil 10ms

vector 0 Net5.rte[1].app endToEndDelay:vector ETV
attr interpolationmode none
attr title "end-to-end delay of arrived packets, vector"
attr unit s
vector 1 Net5.rte[2].app endToEndDelay:vector ETV
attr interpolationmode none
attr title "end-to-end delay of arrived packets, vector"
attr unit s
vector 2 Net5.rte[0].app endToEndDelay:vector ETV
attr interpolationmode none
attr title "end-to-end delay of arrived packets, vector"
attr unit s
0	7	6.643414690259	0.101666666667
0	19	6.846748023593	0.101666666667
0	49	7.050081356927	0.101666666667
0	66	7.391941401509	0.101666666667
0	72	7.452308687348	0.101666666667
0	104	13.009041861365	0.101666666667
0	122	13.178960093197	0.101666666667
0	137	13.280626759864	0.101666666667
0	144	13.803314037721	0.101666666667
0	156	14.006658482166	0.101677777778
0	185	14.2099918155	0.101666666667
0	193	21.268802899501	0.101666666667
0	205	21.472158455057	0.101688888889
0	235	21.675491788391	0.101666666667
0	242	22.367557208852	0.101666666667
0	254	22.570912764408	0.101688888889
0	293	22.774246097742	0.101666666667
0	305	22.8494428964	0.101666666667
0	345	23.052820674178	0.101666666667
0	349	23.054487340845	0.103333333334
0	382	23.2594428964	0.101666666667
1	13	6.745081356926	0.101666666667
1	33	6.94841469026	0.101666666667
1	43	6.950081356927	0.103333333334
1	98	12.975615648752	0.101666666667
1	121	13.178960093197	0.101666666667
1	131	13.180626759864	0.103333333334
1	171	14.108325148833	0.101666666667
1	186	14.2099918155	0.101666666667
1	199	21.370469566168	0.101666666667
1	219	21.573825121724	0.101666666667
1	229	21.575491788391	0.103333333334
1	294	22.774246097742	0.101666666667
1	346	23.052820674178	0.101666666667
1	366	23.157776229733	0.101666666667
1	398	23.361154007511	0.101711111111
2	34	6.94841469026	0.101666666667
2	48	7.050081356927	0.101666666667
2	60	7.350642020681	0.101666666667
2	75	7.493608068176	0.101666666667
2	86	12.873948982085	0.101666666667
2	92	12.907375194698	0.101666666667
2	107	13.07729342653	0.101677777778
2	136	13.280626759864	0.101666666667
2	150	13.904980704388	0.101666666667
2	170	14.108325148833	0.101666666667
2	180	14.1099918155	0.103333333334
2	220	21.573825121724	0.101666666667
2	234	21.675491788391	0.101666666667
2	248	22.469223875519	0.101666666667
2	266	22.672579431075	0.101666666667
2	283	22.747776229733	0.101666666667
2	321	22.951154007511	0.101711111111

