                                                                
version 2
run General-4-20190605-14:42:22-3772
attr configname General
attr datetime 20190605-14:42:22
attr experiment General
attr inifile omnetpp.ini
attr iterationvars ""
attr iterationvarsf ""
attr measurement ""
attr network networks.Net5
attr processid 3772
attr repetition 4
attr replication #4
attr resultdir results
attr runnumber 4
attr seedset 4
param **.appType "\"App\""
param **.app.packetLength "1500 bytes"
param **.app.totalNodes 3
param **.destAddresses "\"0\""
param **.sendIaTime "uniform(5s, 10s)"
param **.sendIaTimeEvil 10ms

vector 0 Net5.rte[1].app endToEndDelay:vector ETV
attr interpolationmode none
attr title "end-to-end delay of arrived packets, vector"
attr unit s
vector 1 Net5.rte[2].app endToEndDelay:vector ETV
attr interpolationmode none
attr title "end-to-end delay of arrived packets, vector"
attr unit s
vector 2 Net5.rte[0].app endToEndDelay:vector ETV
attr interpolationmode none
attr title "end-to-end delay of arrived packets, vector"
attr unit s
1	1025 1402810 13 1077959 7.939494599555 6806.331556971673 32768 0.101666666667 0.103333333334 3331.4167222313 338.6943835229
0	1403835 1402839 7 1078009 7.837827932888 6806.649890305006 32768 0.101666666667 0.103333333334 3331.4167111202 338.69438126253
0	2806674 1459104 1078042 2155946 6806.859890305006 13591.959890305006 32768 0.101666666667 0.101666666667 3331.4133333424 338.69368889117
1	4265778 1459083 1077992 2156424 6806.541556971673 13595.001556971673 32768 0.101666666667 0.101666666667 3331.4133333424 338.69368889117
0	5724861 1474501 2155979 3232634 13592.169890305006 20368.659890305006 32768 0.101666666667 0.101666666667 3331.4133333424 338.69368889117
1	7199362 1474519 2156457 3236055 13595.211556971673 20390.181556971673 32768 0.101666666667 0.101666666667 3331.4133333424 338.69368889117
0	8673881 1474499 3232667 4311018 20368.869890305006 27156.069890305006 32768 0.101666666667 0.101666666667 3331.4133333424 338.69368889117
1	10148380 1474507 3236088 4313997 20390.391556971673 27174.861556971673 32768 0.101666666667 0.101666666667 3331.4133333424 338.69368889117
0	11622887 1474501 4311051 5388973 27156.279890305006 33940.749890305006 32768 0.101666666667 0.101666666667 3331.4133333424 338.69368889117
1	13097388 1474512 4314030 5392381 27175.071556971673 33962.271556971673 32768 0.101666666667 0.101666666667 3331.4133333424 338.69368889117
0	14571900 1474517 5389006 6468098 33940.959890305006 40733.619890305006 32768 0.101666666667 0.101666666667 3331.4133333424 338.69368889117
1	16046417 1474493 5392414 6469711 33962.481556971673 40743.801556971673 32768 0.101666666667 0.101666666667 3331.4133333424 338.69368889117
0	17520910 1474517 6468131 7546681 40733.829890305006 47522.709890305006 32768 0.101666666667 0.101666666667 3331.4133333424 338.69368889117
1	18995427 1474497 6469744 7547502 40744.011556971673 47527.851556971673 32768 0.101666666667 0.101666666667 3331.4133333424 338.69368889117
1	20469924 1474506 7547535 8624205 47528.061556971673 54305.391556971673 32768 0.101666666667 0.101666666667 3331.4133333424 338.69368889117
0	21944430 1474526 7546714 8626360 47522.919890305006 54318.939890305006 32768 0.101666666667 0.101666666667 3331.4133333424 338.69368889117
1	23418956 1474524 8624238 9702110 54305.601556971673 61090.911556971673 32768 0.101666666667 0.101666666667 3331.4133333424 338.69368889117
0	24893480 1474512 8626393 9704905 54319.149890305006 61108.449890305006 32768 0.101666666667 0.101666666667 3331.4133333424 338.69368889117
1	26367992 1498221 9702143 10779875 61091.121556971673 67874.961556971673 32768 0.101666666667 0.101666666667 3331.4133333424 338.69368889117
0	27866213 1498320 9704938 10783515 61108.659890305006 67897.959890305006 32768 0.101666666667 0.101666666667 3331.4133333424 338.69368889117
1	29364533 1507293 10779908 11858127 67875.171556971673 74661.531556971673 32768 0.101666666667 0.101666666667 3331.4133333424 338.69368889117
0	30871826 1507260 10783548 11861635 67898.169890305006 74683.689890305006 32768 0.101666666667 0.101666666667 3331.4133333424 338.69368889117
1	32379086 1507279 11858160 12936893 74661.741556971673 81451.041556971673 32768 0.101666666667 0.101666666667 3331.4133333424 338.69368889117
0	33886365 1507279 11861668 12939167 74683.899890305006 81465.429890305006 32768 0.101666666667 0.101666666667 3331.4133333424 338.69368889117
1	35393644 1507280 12936926 14015100 81451.251556971673 88237.821556971673 32768 0.101666666667 0.101666666667 3331.4133333424 338.69368889117
0	36900924 1507285 12939200 14017321 81465.639890305006 88251.789890305006 32768 0.101666666667 0.101666666667 3331.4133333424 338.69368889117
1	38408209 1507278 14015133 15092618 88238.031556971673 95019.141556971673 32768 0.101666666667 0.101666666667 3331.4133333424 338.69368889117
0	39915487 1507270 14017354 15096093 88251.999890305006 95041.089890305006 32768 0.101666666667 0.101666666667 3331.4133333424 338.69368889117
1	41422757 1516019 15092651 16171354 95019.351556971673 101809.701556971673 32768 0.101666666667 0.101666666667 3331.4133333424 338.69368889117
0	42938776 1516092 15096126 16173753 95041.299890305006 101824.719890305006 32768 0.101666666667 0.101666666667 3331.4133333424 338.69368889117
1	44454868 1540057 16171387 17249242 101809.911556971673 108593.541556971673 32768 0.101666666667 0.101666666667 3331.4133333424 338.69368889117
0	45994925 1540055 16173786 17252235 101824.929890305006 108612.339890305006 32768 0.101666666667 0.101666666667 3331.4133333424 338.69368889117
1	47534980 1540052 17249275 18327460 108593.751556971673 115379.481556971673 32768 0.101666666667 0.101666666667 3331.4133333424 338.69368889117
0	49075032 1540041 17252268 18330275 108612.549890305006 115397.229890305006 32768 0.101666666667 0.101666666667 3331.4133333424 338.69368889117
1	50615073 1540043 18327493 19405211 115379.691556971673 122163.111556971673 32768 0.101666666667 0.101666666667 3331.4133333424 338.69368889117
0	52155116 1540044 18330308 19408831 115397.439890305006 122185.899890305006 32768 0.101666666667 0.101666666667 3331.4133333424 338.69368889117
1	53695160 1540042 19405244 20482822 122163.321556971673 128945.271556971673 32768 0.101666666667 0.101666666667 3331.4133333424 338.69368889117
0	55235202 1540051 19408864 20487643 122186.109890305006 128975.619890305006 32768 0.101666666667 0.101666666667 3331.4133333424 338.69368889117
1	56775253 1540046 20482855 21561298 128945.481556971673 135733.101556971673 32768 0.101666666667 0.101666666667 3331.4133333424 338.69368889117
0	58315299 1540062 20487673 21565459 128975.763327966798 135759.249890305006 32768 0.101666666667 0.101666666667 3331.4133333424 338.69368889117
1	59855361 1540041 21561331 22638415 135733.311556971673 142512.531556971673 32768 0.101666666667 0.101666666667 3331.4133333424 338.69368889117
0	61395402 1540050 21565492 22644668 135759.459890305006 142551.909890305006 32768 0.101666666667 0.101666666667 3331.4133333424 338.69368889117
