version 2
run General-43-20190610-18:04:05-13772
attr configname General
attr datetime 20190610-18:04:05
attr experiment General
attr inifile omnetpp.ini
attr iterationvars ""
attr iterationvarsf ""
attr measurement ""
attr network networks.Net5
attr processid 13772
attr repetition 43
attr replication #43
attr resultdir results
attr runnumber 43
attr seedset 43
param **.appType "\"App\""
param **.app.packetLength "1500 bytes"
param **.app.totalNodes 10
param **.destAddresses "\"0\""
param **.sendIaTime "uniform(5s, 10s)"
param **.sendIaTimeEvil 10ms

vector 0 Net5.rte[2].app endToEndDelay:vector ETV
attr interpolationmode none
attr title "end-to-end delay of arrived packets, vector"
attr unit s
vector 1 Net5.rte[4].app endToEndDelay:vector ETV
attr interpolationmode none
attr title "end-to-end delay of arrived packets, vector"
attr unit s
vector 2 Net5.rte[7].app endToEndDelay:vector ETV
attr interpolationmode none
attr title "end-to-end delay of arrived packets, vector"
attr unit s
vector 3 Net5.rte[3].app endToEndDelay:vector ETV
attr interpolationmode none
attr title "end-to-end delay of arrived packets, vector"
attr unit s
vector 4 Net5.rte[9].app endToEndDelay:vector ETV
attr interpolationmode none
attr title "end-to-end delay of arrived packets, vector"
attr unit s
vector 5 Net5.rte[5].app endToEndDelay:vector ETV
attr interpolationmode none
attr title "end-to-end delay of arrived packets, vector"
attr unit s
vector 6 Net5.rte[0].app endToEndDelay:vector ETV
attr interpolationmode none
attr title "end-to-end delay of arrived packets, vector"
attr unit s
vector 7 Net5.rte[1].app endToEndDelay:vector ETV
attr interpolationmode none
attr title "end-to-end delay of arrived packets, vector"
attr unit s
vector 8 Net5.rte[8].app endToEndDelay:vector ETV
attr interpolationmode none
attr title "end-to-end delay of arrived packets, vector"
attr unit s
vector 9 Net5.rte[6].app endToEndDelay:vector ETV
attr interpolationmode none
attr title "end-to-end delay of arrived packets, vector"
attr unit s
0	23	5.717907143258	0.203333333334
0	33	5.768621506502	0.101666666667
0	100	6.124573809926	0.203333333334
0	139	6.165662817723	0.305000000001
0	343	6.457196983468	0.103333333334
0	387	6.532907143261	0.205000000001
0	522	6.762196983469	0.205000000001
0	531	6.775662817725	0.305000000001
0	645	6.91461477871	0.101666666667
0	970	7.324614778712	0.308333333335
0	1024	7.388996151061	0.308333333335
0	1107	7.552361935303	0.103333333334
0	1137	7.559028601971	0.313333333336
0	1252	8.655332728654	0.305000000001
0	1368	9.012639802899	0.308333333335
0	1424	9.212639802899	0.101666666667
0	1666	10.280215292749	0.310000000002
0	1689	10.378548626082	0.103333333334
0	1819	12.635029261087	0.105000000001
0	1899	12.835029261087	0.101666666667
0	2080	14.145955775093	0.205000000001
0	2153	14.349289108427	0.306666666668
0	2335	15.467454799577	0.103333333334
0	2480	15.582217291362	0.305000000001
0	2560	15.674923170444	0.308333333335
0	2600	15.772454799578	0.205000000001
0	2737	15.979923170445	0.308333333335
0	2836	16.19228395803	0.305000000001
0	2877	16.198950624698	0.311666666669
0	3043	16.565218727099	0.103333333334
0	3202	16.768552060433	0.103333333334
0	3258	16.813972846923	0.310000000002
0	3296	16.910639513589	0.101666666667
0	3504	17.913827468801	0.103333333334
0	3505	17.913827468801	0.205000000001
0	3648	20.564915667781	0.103333333334
0	3742	20.768249001115	0.205000000001
0	3986	22.320566622542	0.101666666667
0	4014	22.325566622543	0.310000000002
0	4136	22.613470917921	0.206666666668
0	4190	22.801828986698	0.101666666667
0	4196	22.813470917921	0.101666666667
0	4496	23.853527742886	0.310000000002
0	4521	23.929957221591	0.103333333334
0	4684	24.133290554925	0.103333333334
0	4719	24.155194409553	0.306666666668
0	4838	25.010790790026	0.103333333334
0	4962	25.315790790027	0.205000000001
0	5173	26.242256846958	0.310000000002
0	5247	26.443923513625	0.308333333335
0	5402	26.98979166554	0.310000000002
0	5425	27.088124998873	0.103333333334
0	5642	28.355045676167	0.101666666667
0	5670	28.360045676168	0.310000000002
0	5820	29.919470504621	0.103333333334
0	5847	29.969759562951	0.203333333334
0	5887	30.072180538104	0.305000000001
0	6044	30.429470504623	0.308333333335
0	6125	30.682280538105	0.305000000001
0	6160	30.687280538106	0.310000000002
0	6337	32.221164723488	0.103333333334
0	6614	32.627831390156	0.306666666668
0	6663	32.684733384504	0.310000000002
0	6691	32.78140005117	0.101666666667
0	6885	33.152486862615	0.205000000001
0	6916	33.254153529282	0.103333333334
0	7118	33.617924112929	0.101666666667
0	7146	33.62292411293	0.310000000002
0	7308	35.118945032523	0.205000000001
0	7402	35.425611699191	0.308333333335
0	7411	35.463879584202	0.101666666667
0	7423	35.667268473091	0.101722222222
0	7546	35.872268473092	0.103333333334
0	7580	35.892230103922	0.101666666667
0	7659	36.095618992811	0.101666666667
0	7688	36.097285659478	0.103333333334
0	8064	38.278200039768	0.205000000001
0	8079	38.283200039769	0.311666666669
0	8099	38.337481581842	0.101666666667
0	8239	38.600283752163	0.203333333334
0	8294	38.747481581844	0.308333333335
0	8323	39.007039307719	0.203422222222
0	8585	39.415372641054	0.205000000001
0	8670	39.55550850551	0.310000000002
0	8726	39.653841838843	0.103333333334
0	8760	39.737907328839	0.103333333334
0	8993	40.144573995507	0.306666666668
0	9008	40.231681013648	0.101666666667
0	9078	40.333347680315	0.101666666667
0	9252	41.800648661899	0.103333333334
0	9390	42.206363019499	0.101666666667
0	9453	42.310648661901	0.308333333335
0	9472	42.40977413061	0.101666666667
0	9510	42.413107463944	0.105000000001
0	9794	44.127179363143	0.103333333334
0	9805	44.12884602981	0.308333333335
0	10053	45.590626281243	0.308333333335
0	10078	45.690626281243	0.205000000001
0	10304	47.058835823939	0.310000000002
0	10360	47.155502490605	0.101666666667
0	10427	47.178410068283	0.103333333334
0	10587	47.381743401617	0.205000000001
0	10817	47.891202677033	0.310000000002
0	10850	47.989536010366	0.103333333334
0	10944	48.138383071637	0.103333333334
0	11218	48.545049738305	0.306666666668
0	11236	48.572266705728	0.308333333335
0	11362	48.787346548964	0.103333333334
0	11363	48.787346548964	0.205000000001
0	11598	51.571068392799	0.308333333335
0	11690	51.8760683928	0.308333333335
0	11703	53.400682641293	0.101666666667
0	11719	53.604104863516	0.101755555556
0	11832	53.80743819685	0.101666666667
0	12125	54.890005213082	0.101666666667
0	12358	55.300005213084	0.308333333335
0	12715	56.061887720022	0.308333333335
0	12791	56.160934642144	0.310000000002
0	12824	56.259267975477	0.205000000001
1	55	5.870288173169	0.101666666667
1	160	6.226240476593	0.101666666667
1	285	6.406281445375	0.203333333334
1	383	6.531240476594	0.203333333334
1	429	6.560530316802	0.206666666668
1	490	6.662196983469	0.105000000001
1	564	6.812948112043	0.203333333334
1	619	6.878996151059	0.103333333334
1	888	7.226281445379	0.210000000002
1	950	7.290662817728	0.210000000002
1	1132	7.557361935304	0.311666666669
1	1159	7.655695268637	0.206666666668
1	1371	9.015973136233	0.311666666669
1	1438	9.215973136233	0.105000000001
1	1619	10.181881959416	0.211666666669
1	1721	10.481881959416	0.206666666668
1	1759	12.32667370553	0.203333333334
1	1842	12.73336259442	0.203333333334
1	1879	12.738362594421	0.208333333335
1	2071	14.144289108426	0.203333333334
1	2156	14.352622441761	0.310000000002
1	2441	15.570788132911	0.206666666668
1	2547	15.672454799578	0.105000000001
1	2572	15.679121466246	0.312531629137
1	2674	15.881589837112	0.210000000002
1	2789	16.055152060431	0.203333333334
1	2818	16.098950624698	0.211666666669
1	2901	16.293950624697	0.101666666667
1	2955	16.461885393765	0.2034
1	3174	16.71563951359	0.211666666669
1	3279	16.871885393767	0.206666666668
1	3310	16.913972846923	0.105000000001
1	3492	17.912160802134	0.203333333334
1	3547	18.017160802135	0.206666666668
1	3713	20.668249001115	0.206666666668
1	3738	20.766582334448	0.203333333334
1	3804	21.812166622541	0.203333333334
1	3917	22.218899955875	0.203333333334
1	3962	22.22723328921	0.211666666669
1	4126	22.610137584587	0.203333333334
1	4210	22.816804251255	0.105000000001
1	4419	23.755194409553	0.211666666669
1	4529	23.931623888258	0.105000000001
1	4722	24.158527742887	0.310000000002
1	4743	24.236623888259	0.206666666668
1	4898	25.11412412336	0.206666666668
1	4942	25.215790790027	0.105000000001
1	5130	26.143923513625	0.211666666669
1	5221	26.345590180292	0.210000000002
1	5355	26.891458332207	0.211666666669
1	5457	27.191458332207	0.206666666668
1	5495	27.846623453944	0.203333333334
1	5577	28.2533790095	0.203333333334
1	5622	28.261712342835	0.211666666669
1	5867	30.022803837955	0.206666666668
1	5991	30.33113717129	0.210000000002
1	6111	30.588947204773	0.211666666669
1	6178	30.783947204772	0.101666666667
1	6397	32.324498056822	0.206666666668
1	6596	32.586400051171	0.211666666669
1	6617	32.63116472349	0.310000000002
1	6705	32.784733384504	0.105000000001
1	6836	33.052486862615	0.105000000001
1	6850	33.109479668484	0.203333333334
1	6985	33.357486862616	0.206666666668
1	6999	33.377773983737	0.101666666667
1	7053	33.516257446262	0.203333333334
1	7098	33.524590779597	0.211666666669
1	7307	35.118945032523	0.205000000001
1	7378	35.327278365858	0.210000000002
1	7469	35.768935139758	0.101666666667
1	7600	35.975601806426	0.206666666668
1	7698	36.098952326145	0.105000000001
1	7732	36.197285659478	0.101666666667
1	7839	37.828992692953	0.203333333334
1	8024	38.235814915175	0.203488888888
1	8060	38.276533373101	0.203333333334
1	8080	38.283200039769	0.311666666669
1	8266	38.649148248511	0.210000000002
1	8380	39.110372641053	0.103333333334
1	8522	39.315372641054	0.105000000001
1	8619	39.457175172177	0.211666666669
1	8796	39.757175172177	0.206666666668
1	8843	39.841240662173	0.206666666668
1	8921	40.028269902537	0.101666666667
1	8996	40.147907328841	0.310000000002
1	9007	40.231681013648	0.101666666667
1	9050	40.236681013649	0.106666666668
1	9289	41.903981995233	0.206666666668
1	9408	42.212315328568	0.210000000002
1	9545	42.511440797277	0.101666666667
1	9583	42.518107463945	0.210000000002
1	9821	44.132179363144	0.311666666669
1	9843	44.230512696477	0.206666666668
1	10052	45.590626281243	0.105000000001
1	10061	45.593959614577	0.311666666669
1	10241	46.960502490606	0.211666666669
1	10374	47.158835823939	0.105000000001
1	10531	47.281743401617	0.206666666668
1	10583	47.38007673495	0.203333333334
1	10757	47.7928693437	0.211666666669
1	10781	47.885484889981	0.305000000001
1	10919	48.0928693437	0.206666666668
1	11010	48.241716404971	0.206666666668
1	11194	48.473933372395	0.210000000002
1	11221	48.548383071639	0.310000000002
1	11350	48.785679882297	0.203333333334
1	11405	48.890679882298	0.206666666668
1	11603	51.574401726133	0.311666666669
1	11670	51.777735059467	0.210000000002
1	11709	53.50234930796	0.101666666667
1	11752	53.62421101854	0.101666666667
1	11764	53.705771530183	0.101666666667
1	11794	53.70743819685	0.103333333334
1	11981	54.381471879747	0.203333333334
1	12068	54.788338546415	0.203533333334
1	12317	55.201671879751	0.210000000002
1	12718	56.062601308811	0.211666666669
1	12722	56.065221053356	0.311666666669
1	12820	56.25760130881	0.203333333334
1	12834	56.26482105335	0.101666666667
1	12869	56.468254386684	0.101766666667
2	58	5.880272818097	0.305000000001
2	328	6.434573809928	0.310000000002
2	370	6.470662817724	0.305000000001
2	393	6.536240476595	0.208333333335
2	475	6.658863650135	0.101666666667
2	501	6.66719698347	0.313333333336
2	744	7.024614778712	0.211666666669
2	759	7.080662817726	0.305000000001
2	788	7.087329484394	0.311666666669
2	891	7.229614778713	0.213333333336
2	1143	7.562361935305	0.31666666667
2	1183	7.760695268638	0.311666666669
2	1377	9.020973136234	0.31666666667
2	1484	9.360181959412	0.305000000001
2	1500	9.424306469568	0.313333333336
2	1528	9.970215292747	0.305033333334
2	1738	10.586881959417	0.311666666669
2	1928	12.841695927755	0.311666666669
2	1948	12.943362594422	0.210000000002
2	2093	14.149289108427	0.208333333335
2	2162	14.357622441762	0.315000000003
2	2248	15.277217291361	0.305000000001
2	2511	15.669121466244	0.101666666667
2	2568	15.677454799579	0.313333333336
2	2584	15.684121466247	0.317531629138
2	2677	15.884923170446	0.213333333336
2	2683	15.887283958029	0.305066666667
2	2994	16.502283958032	0.310000000002
2	3151	16.671885393767	0.210000000002
2	3177	16.718972846924	0.215000000003
2	3330	16.976885393768	0.311666666669
2	3368	17.122306180258	0.313333333336
2	3526	17.917160802135	0.208333333335
2	3564	18.122160802136	0.311666666669
2	3748	20.771582334449	0.208333333335
2	3754	20.77658233445	0.315000000003
2	3776	21.608833289207	0.203333333334
2	3832	22.015566622541	0.2034
2	4077	22.428899955877	0.210000000002
2	4140	22.615137584588	0.208333333335
2	4256	22.93339440955	0.305000000001
2	4272	23.02513758459	0.313333333336
2	4318	23.543527742884	0.305133333333
2	4712	24.139957221593	0.313333333336
2	4728	24.163527742888	0.315000000003
2	4767	24.34162388826	0.311666666669
2	4927	25.212457456693	0.101666666667
2	4953	25.220790790028	0.313333333336
2	4989	25.728812402512	0.203333333334
2	5089	26.13559018029	0.203333333334
2	5135	26.147256846959	0.215000000003
2	5358	26.894791665541	0.215000000003
2	5474	27.296458332208	0.311666666669
2	5485	27.64329012061	0.203333333334
2	5505	28.050045676166	0.203422222222
2	5700	28.463379009502	0.210000000002
2	5761	29.767180538103	0.305000000001
2	5923	30.129470504623	0.313333333336
2	5994	30.334470504624	0.213333333336
2	6005	30.377280538104	0.3051
2	6226	30.992280538107	0.310000000002
2	6255	31.764600051168	0.305000000001
2	6425	32.374733384502	0.305133333333
2	6483	32.43116472349	0.313333333336
2	6623	32.636164723491	0.315000000003
2	6804	32.993066717839	0.313333333336
2	6820	33.049153529281	0.101666666667
2	7047	33.462486862617	0.311666666669
2	7101	33.527924112931	0.215000000003
2	7176	33.726257446264	0.210000000002
2	7200	34.710411699188	0.203333333334
2	7281	35.117278365856	0.203333333334
2	7317	35.123945032524	0.210000000002
2	7610	35.977268473093	0.310000000002
2	7654	36.080601806427	0.311666666669
2	7806	36.30728565948	0.313333333336
2	7818	36.405618992813	0.310000000002
2	8073	38.281533373102	0.208333333335
2	8086	38.28820003977	0.31666666667
2	8186	38.447481581844	0.211666666669
2	8245	38.635208505506	0.305000000001
2	8269	38.652481581845	0.213333333336
2	8462	39.245508505508	0.305300000001
2	8507	39.31203930772	0.101666666667
2	8533	39.318705974388	0.311666666669
2	8870	39.862175172178	0.311666666669
2	8905	39.947907328841	0.313333333336
2	9002	40.152907328842	0.315000000003
2	9146	40.44168101365	0.210000000002
2	9159	40.450014346985	0.320000000004
2	9194	41.391948661898	0.305000000001
2	9306	42.002315328566	0.305000000001
2	9339	42.010648661901	0.313333333336
2	9610	42.619774130612	0.311666666669
2	9619	42.719774130612	0.310000000002
2	9828	44.137179363145	0.31666666667
2	9860	44.335512696478	0.311666666669
2	10031	45.587292947909	0.101666666667
2	10067	45.598959614578	0.31666666667
2	10100	46.138602490604	0.305000000001
2	10132	46.748835823937	0.305233333332
2	10255	46.970836010363	0.305000000001
2	10569	47.367169157274	0.313333333336
2	10593	47.385076734951	0.208333333335
2	10599	47.390076734952	0.315000000003
2	10637	47.581202677031	0.305366666667
2	10978	48.197869343701	0.311666666669
2	11093	48.348383071639	0.313333333336
2	11197	48.477266705729	0.213333333336
2	11227	48.55338307164	0.315000000003
2	11384	48.790679882298	0.208333333335
2	11422	48.995679882299	0.311666666669
2	11452	50.957268392798	0.305000000001
2	11571	51.567735059465	0.305000000001
2	11612	51.579401726134	0.31666666667
2	11897	53.915771530185	0.210000000002
2	11903	53.920771530186	0.31666666667
2	12221	55.000005213084	0.211666666669
2	12321	55.205005213085	0.213333333336
2	12392	55.444067975474	0.203333333334
2	12497	55.850934642142	0.203533333334
2	12738	56.070221053357	0.31666666667
2	12830	56.262601308811	0.208333333335
3	64	5.921240476592	0.203333333334
3	200	6.32790714326	0.203333333334
3	236	6.331240476594	0.206666666668
3	349	6.458863650135	0.105000000001
3	482	6.660530316802	0.103333333334
3	688	6.980662817726	0.205000000001
3	734	7.019614778711	0.206666666668
3	885	7.224614778712	0.208333333335
3	947	7.288996151061	0.208333333335
3	991	7.352361935303	0.106666666668
3	1106	7.552361935303	0.103333333334
3	1300	8.810973136232	0.106666666668
3	1494	9.4176398029	0.306666666668
3	1616	10.180215292749	0.210000000002
3	1688	10.378548626082	0.103333333334
3	1813	12.63336259442	0.103333333334
3	1938	12.938362594421	0.205000000001
3	1958	13.737600219536	0.101666666667
3	1971	13.940955775092	0.101688888889
3	2086	14.14762244176	0.105000000001
3	2344	15.469121466244	0.105000000001
3	2369	15.473256503777	0.106666666668
3	2518	15.670788132911	0.103333333334
3	2671	15.879923170445	0.208333333335
3	2814	16.097283958031	0.210000000002
3	2939	16.397283958031	0.205000000001
3	3133	16.666885393766	0.205000000001
3	3171	16.713972846923	0.210000000002
3	3201	16.768552060433	0.103333333334
3	3362	17.11563951359	0.306666666668
3	3378	17.505471913244	0.101666666667
3	3390	17.7088274688	0.101688888889
3	3503	17.913827468801	0.103333333334
3	3577	20.359882334447	0.101666666667
3	3618	20.563249001114	0.101666666667
3	3656	20.566582334448	0.105000000001
3	3798	21.796737584585	0.305000000001
3	3810	21.878996763112	0.203333333334
3	3958	22.225566622543	0.210000000002
3	4028	22.406804251253	0.305066666667
3	4067	22.423899955876	0.205000000001
3	4266	23.018470917922	0.306666666668
3	4416	23.753527742886	0.210000000002
3	4557	23.953527742886	0.105000000001
3	4683	24.133290554925	0.103333333334
3	4685	24.133290554925	0.306666666668
3	4844	25.012457456693	0.105000000001
3	4934	25.21412412336	0.103333333334
3	5126	26.142256846958	0.210000000002
3	5218	26.343923513625	0.208333333335
3	5352	26.88979166554	0.210000000002
3	5424	27.088124998873	0.103333333334
3	5618	28.260045676168	0.210000000002
3	5690	28.458379009501	0.205000000001
3	5826	29.921137171288	0.105000000001
3	5930	30.173092896285	0.203333333334
3	5988	30.329470504623	0.208333333335
3	6108	30.587280538106	0.210000000002
3	6208	30.887280538106	0.205000000001
3	6343	32.222831390155	0.105000000001
3	6466	32.426164723489	0.105000000001
3	6593	32.584733384504	0.210000000002
3	6798	32.986400051171	0.306666666668
3	6835	33.052486862615	0.105000000001
3	6915	33.254153529282	0.103333333334
3	7094	33.52292411293	0.210000000002
3	7166	33.721257446263	0.205000000001
3	7190	34.507078365854	0.203333333334
3	7210	34.913945032522	0.203533333334
3	7375	35.325611699191	0.208333333335
3	7545	35.872268473092	0.103333333334
3	7547	35.872268473092	0.205000000001
3	7789	36.300618992812	0.205000000001
3	7791	36.300618992812	0.306666666668
3	7845	37.869800039767	0.101666666667
3	7894	38.073200039767	0.101666666667
3	7929	38.078200039768	0.106666666668
3	8176	38.442481581843	0.206666666668
3	8263	38.647481581844	0.208333333335
3	8437	39.21203930772	0.205000000001
3	8514	39.313705974387	0.103333333334
3	8616	39.45550850551	0.210000000002
3	8725	39.653841838843	0.103333333334
3	8766	39.739573995506	0.105000000001
3	8888	39.94290732884	0.105000000001
3	9136	40.436681013649	0.205000000001
3	9153	40.445014346984	0.315000000003
3	9258	41.802315328566	0.105000000001
3	9405	42.210648661901	0.208333333335
3	9502	42.411440797277	0.103333333334
3	9595	42.614774130611	0.205000000001
3	9695	43.927179363143	0.106666666668
3	9793	44.127179363143	0.103333333334
3	9936	45.388959614576	0.106666666668
3	10040	45.588959614576	0.103333333334
3	10238	46.958835823939	0.210000000002
3	10261	46.973332290505	0.101666666667
3	10397	47.176743401616	0.101666666667
3	10435	47.18007673495	0.105000000001
3	10563	47.360502490606	0.306666666668
3	10754	47.791202677033	0.210000000002
3	10849	47.989536010366	0.103333333334
3	10950	48.140049738304	0.105000000001
3	11076	48.343383071638	0.105000000001
3	11139	48.378890993407	0.101666666667
3	11191	48.472266705728	0.208333333335
3	11245	48.582346548963	0.101788888889
3	11361	48.787346548964	0.103333333334
3	11511	51.369401726132	0.106666666668
3	11667	51.7760683928	0.208333333335
3	11843	53.809104863517	0.205000000001
3	11883	53.910771530184	0.205000000001
3	12211	54.995005213083	0.206666666668
3	12314	55.200005213084	0.208333333335
3	12430	55.647401308808	0.203333333334
3	12538	55.860221053355	0.106666666668
3	12662	56.054267975476	0.203333333334
3	12711	56.060934642144	0.210000000002
4	70	5.947196983466	0.203333333334
4	161	6.226240476593	0.101666666667
4	248	6.353863650134	0.203333333334
4	300	6.429573809927	0.101666666667
4	528	6.765530316803	0.208333333335
4	612	6.877329484392	0.101666666667
4	735	7.019614778711	0.206666666668
4	976	7.334614778714	0.318333333337
4	1030	7.398996151063	0.318333333337
4	1089	7.464028601972	0.218333333337
4	1165	7.657361935304	0.208333333335
4	1357	8.922639802901	0.218333333337
4	1470	9.3176398029	0.206666666668
4	1514	9.665181959413	0.305000000001
4	1633	10.275215292748	0.305000000001
4	1675	10.290215292751	0.320000000004
4	1887	12.740029261088	0.210000000002
4	1942	12.940029261088	0.206666666668
4	2013	14.042622441759	0.101666666667
4	2146	14.259289108429	0.21666666667
4	2453	15.572454799578	0.208333333335
4	2494	15.584923170446	0.218333333337
4	2616	15.775788132912	0.208333333335
4	2746	15.989923170447	0.318333333337
4	2884	16.207283958033	0.320000000004
4	2902	16.293950624697	0.101666666667
4	3145	16.6702187271	0.208333333335
4	3267	16.823972846925	0.320000000004
4	3285	16.873552060434	0.208333333335
4	3344	17.01563951359	0.206666666668
4	3384	17.607138579911	0.101666666667
4	3429	17.810494135467	0.101666666667
4	3461	17.812160802134	0.103333333334
4	3692	20.664915667781	0.101666666667
4	3720	20.669915667782	0.208333333335
4	4025	22.335566622545	0.320000000004
4	4071	22.425566622543	0.206666666668
4	4089	22.50847091792	0.101666666667
4	4242	22.918470917922	0.206666666668
4	4508	23.863527742888	0.320000000004
4	4624	24.034957221592	0.208333333335
4	4665	24.065194409555	0.21666666667
4	4749	24.238290554926	0.208333333335
4	4906	25.115790790027	0.208333333335
4	4968	25.319124123361	0.208333333335
4	5199	26.25225684696	0.320000000004
4	5235	26.374691665538	0.305000000001
4	5253	26.453923513627	0.318333333337
4	5369	26.984791665539	0.305000000001
4	5411	26.999791665542	0.320000000004
4	5681	28.37004567617	0.320000000004
4	5694	28.460045676168	0.206666666668
4	5873	30.024470504622	0.208333333335
4	6050	30.439470504625	0.318333333337
4	6167	30.697280538108	0.320000000004
4	6179	30.783947204772	0.101666666667
4	6249	31.711053612376	0.203333333334
4	6289	32.117831390154	0.203444444444
4	6568	32.537831390158	0.21666666667
4	6672	32.694733384506	0.320000000004
4	6741	32.886400051171	0.206666666668
4	6897	33.157486862616	0.210000000002
4	6991	33.359153529283	0.208333333335
4	7157	33.632924112932	0.320000000004
4	7170	33.72292411293	0.206666666668
4	7252	35.015611699189	0.101666666667
4	7408	35.435611699193	0.318333333337
4	7417	35.565546250869	0.101666666667
4	7466	35.768935139758	0.101666666667
4	7497	35.770601806425	0.103333333334
4	7733	36.197285659478	0.101666666667
4	7765	36.202285659479	0.208333333335
4	7972	38.174866706434	0.101666666667
4	8021	38.189866706437	0.218333333337
4	8177	38.442481581843	0.206666666668
4	8300	38.757481581846	0.318333333337
4	8373	39.108705974386	0.101666666667
4	8456	39.227751773283	0.203333333334
4	8591	39.418705974388	0.208333333335
4	8679	39.565508505512	0.320000000004
4	8682	39.634573995505	0.203488888888
4	8802	39.758841838844	0.208333333335
4	8953	40.054573995509	0.21666666667
4	9099	40.336681013649	0.206666666668
4	9140	40.438347680316	0.206666666668
4	9180	41.086948661897	0.305000000001
4	9208	41.697315328565	0.305366666667
4	9467	42.320648661903	0.318333333337
4	9546	42.511440797277	0.101666666667
4	9584	42.518107463945	0.210000000002
4	9640	43.617001585363	0.203333333334
4	9722	44.023846029809	0.203333333334
4	9778	44.038846029812	0.218333333337
4	10019	45.500626281245	0.218333333337
4	10085	45.693959614577	0.208333333335
4	10216	46.871665623838	0.101666666667
4	10313	47.068835823941	0.320000000004
4	10320	47.075076734949	0.101744444444
4	10474	47.260502490606	0.206666666668
4	10510	47.278410068283	0.101666666667
4	10671	47.628160849413	0.203333333334
4	10826	47.901202677035	0.320000000004
4	10873	48.035049738303	0.203555555556
4	10925	48.094536010367	0.208333333335
4	11176	48.455049738307	0.21666666667
4	11203	48.480557660074	0.101666666667
4	11242	48.58226670573	0.318333333337
4	11287	48.68401321563	0.101666666667
4	11319	48.685679882297	0.103333333334
4	11568	51.481068392801	0.218333333337
4	11696	51.886068392802	0.318333333337
4	11767	53.705771530183	0.101666666667
4	11887	53.912438196851	0.206666666668
4	12212	54.995005213083	0.206666666668
4	12365	55.310005213086	0.318333333337
4	12650	55.971887720024	0.218333333337
4	12760	56.155934642143	0.101666666667
4	12805	56.170934642146	0.320000000004
5	133	6.1505303168	0.203333333334
5	228	6.329573809927	0.205000000001
5	310	6.431240476594	0.103333333334
5	398	6.557196983468	0.203333333334
5	436	6.562196983469	0.208333333335
5	665	6.919614778711	0.106666666668
5	691	6.982329484393	0.206666666668
5	819	7.126281445379	0.110000000002
5	858	7.190662817728	0.110000000002
5	1074	7.457361935304	0.211666666669
5	1158	7.655695268637	0.206666666668
5	1343	8.915973136233	0.211666666669
5	1473	9.319306469567	0.208333333335
5	1585	10.081881959416	0.111666666669
5	1720	10.481881959416	0.206666666668
5	1872	12.736695927754	0.206666666668
5	1913	12.838362594421	0.105000000001
5	2043	14.044289108426	0.103333333334
5	2132	14.252622441761	0.210000000002
5	2226	15.160765910687	0.203333333334
5	2407	15.567454799577	0.203333333334
5	2452	15.572454799578	0.208333333335
5	2474	15.579121466246	0.212531629137
5	2632	15.781589837112	0.110000000002
5	2774	15.998950624698	0.111666666669
5	2940	16.397283958031	0.205000000001
5	3051	16.566885393766	0.105000000001
5	3091	16.61563951359	0.111666666669
5	3278	16.871885393767	0.206666666668
5	3347	17.017306180257	0.208333333335
5	3463	17.812160802134	0.103333333334
5	3546	18.017160802135	0.206666666668
5	3702	20.666582334448	0.103333333334
5	3724	20.671582334449	0.210000000002
5	3898	22.12723328921	0.111666666669
5	4005	22.323899955876	0.105000000001
5	4097	22.510137584587	0.103333333334
5	4245	22.920137584589	0.208333333335
5	4381	23.655194409553	0.111666666669
5	4625	24.034957221592	0.208333333335
5	4651	24.058527742887	0.210000000002
5	4742	24.236623888259	0.206666666668
5	4784	24.704079678914	0.203333333334
5	4867	25.110790790026	0.203333333334
5	4905	25.115790790027	0.208333333335
5	5068	26.043923513625	0.111666666669
5	5181	26.245590180292	0.110000000002
5	5321	26.791458332207	0.111666666669
5	5456	27.191458332207	0.206666666668
5	5562	28.161712342835	0.111666666669
5	5661	28.358379009501	0.105000000001
5	5872	30.024470504622	0.208333333335
5	5957	30.23113717129	0.110000000002
5	6077	30.488947204773	0.111666666669
5	6209	30.887280538106	0.205000000001
5	6403	32.326164723489	0.208333333335
5	6527	32.486400051171	0.111666666669
5	6554	32.53116472349	0.210000000002
5	6571	32.540642418168	0.203333333334
5	6744	32.888066717838	0.208333333335
5	6761	32.947486862614	0.203511111112
5	6984	33.357486862616	0.206666666668
5	7029	33.424590779597	0.111666666669
5	7050	33.479440650404	0.101666666667
5	7137	33.621257446263	0.105000000001
5	7267	35.018945032523	0.105000000001
5	7348	35.227278365858	0.110000000002
5	7548	35.872268473092	0.205000000001
5	7599	35.975601806426	0.206666666668
5	7766	36.202285659479	0.208333333335
5	7790	36.300618992812	0.205000000001
5	7980	38.176533373101	0.103333333334
5	8007	38.183200039769	0.211666666669
5	8119	38.342481581843	0.106666666668
5	8224	38.549148248511	0.110000000002
5	8303	38.803617085497	0.203333333334
5	8410	39.210372641053	0.203333333334
5	8442	39.213705974387	0.206666666668
5	8564	39.357175172177	0.111666666669
5	8795	39.757175172177	0.206666666668
5	8849	39.84290732884	0.208333333335
5	8939	40.047907328841	0.210000000002
5	9097	40.336681013649	0.105000000001
5	9119	40.345014346984	0.215000000003
5	9294	41.9056486619	0.208333333335
5	9372	42.112315328568	0.110000000002
5	9567	42.514774130611	0.206666666668
5	9596	42.614774130611	0.205000000001
5	9764	44.032179363144	0.211666666669
5	9842	44.230512696477	0.206666666668
5	9881	45.078848503464	0.203333333334
5	9963	45.485626281242	0.203333333334
5	10005	45.493959614577	0.211666666669
5	10197	46.860502490606	0.111666666669
5	10477	47.262169157273	0.208333333335
5	10520	47.28007673495	0.103333333334
5	10542	47.285076734951	0.210000000002
5	10711	47.6928693437	0.111666666669
5	10918	48.0928693437	0.206666666668
5	11016	48.243383071638	0.208333333335
5	11129	48.373933372395	0.110000000002
5	11162	48.448383071639	0.210000000002
5	11321	48.685679882297	0.103333333334
5	11404	48.890679882298	0.206666666668
5	11554	51.474401726133	0.211666666669
5	11640	51.677735059467	0.110000000002
5	11820	53.725877685207	0.101666666667
5	11850	53.810771530184	0.105000000001
5	11863	53.815771530185	0.211666666669
5	12146	54.895005213083	0.106666666668
5	12269	55.101671879751	0.110000000002
5	12616	55.962601308811	0.111666666669
5	12627	55.965221053356	0.211666666669
5	12770	56.15760130881	0.103333333334
6	145	6.185272818098	0.305000000001
6	297	6.429573809927	0.101666666667
6	311	6.431240476594	0.306666666668
6	424	6.558863650135	0.205000000001
6	518	6.760530316802	0.203333333334
6	597	6.839028601967	0.203333333334
6	760	7.080662817726	0.305000000001
6	803	7.119614778711	0.306666666668
6	902	7.245695268635	0.203333333334
6	964	7.321281445378	0.305000000001
6	1018	7.385662817727	0.305000000001
6	1152	7.652361935303	0.203333333334
6	1190	7.890973136228	0.406666666668
6	1226	8.350332728653	0.305000000001
6	1255	8.704306469564	0.406666666668
6	1507	9.5176398029	0.406666666668
6	1656	10.276881959415	0.306666666668
6	1714	10.478548626082	0.203333333334
6	1843	12.73336259442	0.203333333334
6	1951	13.038362594421	0.305000000001
6	1964	13.839266886203	0.101666666667
6	2010	14.042622441759	0.101666666667
6	2041	14.044289108426	0.103333333334
6	2184	14.756556503774	0.305000000001
6	2279	15.366589837109	0.305033333334
6	2433	15.569121466244	0.205000000001
6	2596	15.770788132911	0.203333333334
6	2731	15.976589837111	0.305000000001
6	2861	16.193950624697	0.306666666668
6	2988	16.497283958031	0.305000000001
6	3192	16.766885393766	0.305000000001
6	3248	16.810639513589	0.306666666668
6	3272	16.868552060433	0.203333333334
6	3371	17.21563951359	0.406666666668
6	3430	17.810494135467	0.101666666667
6	3538	18.013827468801	0.203333333334
6	3689	20.664915667781	0.101666666667
6	3703	20.666582334448	0.205000000001
6	3996	22.322233289209	0.306666666668
6	4087	22.50847091792	0.101666666667
6	4116	22.523899955876	0.305000000001
6	4279	23.118470917922	0.406666666668
6	4290	23.238394409551	0.305000000001
6	4466	23.848527742885	0.305000000001
6	4488	23.850194409552	0.306666666668
6	4733	24.233290554925	0.406666666668
6	4737	24.234957221592	0.205000000001
6	4893	25.112457456693	0.205000000001
6	4958	25.31412412336	0.203333333334
6	5159	26.238923513624	0.306666666668
6	5241	26.440590180291	0.305000000001
6	5392	26.986458332206	0.306666666668
6	5450	27.188124998873	0.203333333334
6	5652	28.356712342834	0.306666666668
6	5703	28.558379009501	0.305000000001
6	5864	30.021137171288	0.205000000001
6	6038	30.426137171289	0.305000000001
6	6150	30.683947204772	0.306666666668
6	6220	30.987280538106	0.305000000001
6	6269	31.91438694571	0.203333333334
6	6370	32.321164723488	0.203333333334
6	6393	32.322831390155	0.205000000001
6	6653	32.68140005117	0.306666666668
6	6847	33.086400051171	0.406666666668
6	6884	33.152486862615	0.205000000001
6	6978	33.354153529282	0.203333333334
6	7128	33.619590779596	0.306666666668
6	7179	33.821257446263	0.305000000001
6	7250	35.015611699189	0.101666666667
6	7396	35.422278365857	0.305000000001
6	7588	35.972268473092	0.305000000001
6	7592	35.973935139759	0.205000000001
6	7809	36.400618992812	0.406666666668
6	7812	36.402285659479	0.306666666668
6	7833	37.7681333731	0.101666666667
6	7855	37.9715333731	0.101733333333
6	7969	38.174866706434	0.101666666667
6	8208	38.542481581843	0.306666666668
6	8288	38.74414824851	0.305000000001
6	8503	39.31203930772	0.305000000001
6	8581	39.413705974387	0.203333333334
6	8594	39.431085106617	0.203333333334
6	8660	39.552175172176	0.306666666668
6	8789	39.753841838843	0.203333333334
6	8816	39.837907328839	0.203333333334
6	8839	39.839573995506	0.205000000001
6	9162	40.536681013649	0.305000000001
6	9165	40.545014346984	0.415000000003
6	9286	41.902315328566	0.205000000001
6	9422	42.307315328567	0.305000000001
6	9542	42.511440797277	0.203333333334
6	9613	42.714774130611	0.305000000001
6	9630	43.413668252029	0.203333333334
6	9650	43.820512696475	0.203511111112
6	9833	44.227179363143	0.203333333334
6	9871	44.87551517013	0.203333333334
6	9891	45.282292947908	0.203444444444
6	10072	45.688959614576	0.203333333334
6	10294	47.055502490605	0.306666666668
6	10507	47.278410068283	0.101666666667
6	10521	47.28007673495	0.205000000001
6	10610	47.460502490606	0.406666666668
6	10632	47.58048488998	0.305000000001
6	10771	47.831494182747	0.203333333334
6	10807	47.887869343699	0.306666666668
6	10912	48.089536010366	0.203333333334
6	10983	48.238383071637	0.203333333334
6	11006	48.240049738304	0.205000000001
6	11230	48.568933372394	0.305000000001
6	11288	48.68401321563	0.101666666667
6	11396	48.887346548964	0.203333333334
6	11438	50.652268392797	0.305000000001
6	11466	51.262735059464	0.305466666666
6	11684	51.872735059466	0.305000000001
6	11876	53.909104863517	0.305000000001
6	11915	54.010771530184	0.305000000001
6	12161	54.939821053351	0.406666666668
6	12253	55.095005213083	0.306666666668
6	12352	55.29667187975	0.305000000001
6	12455	55.753554386687	0.407066666668
6	12757	56.155934642143	0.101666666667
6	12771	56.15760130881	0.306666666668
7	159	6.226240476593	0.101666666667
7	399	6.557196983468	0.203333333334
7	459	6.632907143261	0.305000000001
7	519	6.760530316802	0.203333333334
7	611	6.877329484392	0.101666666667
7	644	6.91461477871	0.101666666667
7	967	7.322948112045	0.306666666668
7	1021	7.387329484394	0.306666666668
7	1153	7.652361935303	0.203333333334
7	1172	7.659028601971	0.413333333336
7	1220	8.297639802896	0.406666666668
7	1384	9.110973136232	0.406666666668
7	1407	9.112639802899	0.408333333335
7	1661	10.278548626082	0.308333333335
7	1715	10.478548626082	0.203333333334
7	1867	12.735029261087	0.205000000001
7	1898	12.835029261087	0.101666666667
7	2119	14.245955775093	0.305000000001
7	2165	14.449289108427	0.406666666668
7	2408	15.567454799577	0.203333333334
7	2597	15.770788132911	0.203333333334
7	2613	15.774923170444	0.408333333335
7	2734	15.978256503778	0.306666666668
7	2866	16.195617291364	0.308333333335
7	2871	16.197283958031	0.305119336928
7	2900	16.293950624697	0.101666666667
7	3036	16.563552060432	0.101666666667
7	3225	16.808972846922	0.305000000001
7	3253	16.812306180256	0.308333333335
7	3273	16.868552060433	0.203333333334
7	3537	18.013827468801	0.305000000001
7	3541	18.015494135468	0.205000000001
7	3688	20.664915667781	0.203333333334
7	3757	20.868249001115	0.305000000001
7	3868	22.101737584586	0.305000000001
7	3985	22.320566622542	0.101666666667
7	4007	22.323899955876	0.308333333335
7	4147	22.700162320031	0.101666666667
7	4153	22.711804251254	0.305000000001
7	4176	22.713470917921	0.306666666668
7	4304	23.419846110479	0.203333333334
7	4433	23.826623888257	0.203444444444
7	4492	23.851861076219	0.308333333335
7	4734	24.233290554925	0.203333333334
7	4757	24.255194409553	0.406666666668
7	4868	25.110790790026	0.203333333334
7	4959	25.31412412336	0.203333333334
7	5166	26.240590180291	0.308333333335
7	5244	26.442256846958	0.306666666668
7	5397	26.988124998873	0.308333333335
7	5451	27.188124998873	0.203333333334
7	5641	28.355045676167	0.101666666667
7	5663	28.358379009501	0.308333333335
7	5860	30.019470504621	0.203333333334
7	6041	30.427803837956	0.306666666668
7	6155	30.685613871439	0.308333333335
7	6177	30.783947204772	0.101666666667
7	6283	32.069600051169	0.305000000001
7	6371	32.321164723488	0.203333333334
7	6630	32.679733384503	0.305000000001
7	6658	32.683066717837	0.308333333335
7	6679	32.727831390156	0.406666666668
7	6859	33.150820195948	0.203333333334
7	6979	33.354153529282	0.203333333334
7	7117	33.617924112929	0.101666666667
7	7139	33.621257446263	0.308333333335
7	7327	35.218945032523	0.305000000001
7	7399	35.423945032524	0.306666666668
7	7468	35.768935139758	0.101666666667
7	7522	35.790563437255	0.101666666667
7	7589	35.972268473092	0.203333333334
7	7618	35.993952326144	0.101722222222
7	7731	36.197285659478	0.101666666667
7	8098	38.337481581842	0.101666666667
7	8130	38.378200039768	0.305000000001
7	8133	38.383200039769	0.411666666669
7	8291	38.745814915177	0.306666666668
7	8372	39.108705974386	0.101666666667
7	8582	39.413705974387	0.203333333334
7	8665	39.553841838843	0.308333333335
7	8790	39.753841838843	0.203333333334
7	8817	39.837907328839	0.203333333334
7	8873	39.92660323587	0.101666666667
7	8956	40.130014346981	0.101744444444
7	9066	40.244573995507	0.406666666668
7	9077	40.333347680315	0.101666666667
7	9282	41.900648661899	0.203333333334
7	9448	42.308981995234	0.306666666668
7	9544	42.511440797277	0.101666666667
7	9556	42.513107463944	0.205000000001
7	9834	44.227179363143	0.203333333334
7	9837	44.22884602981	0.408333333335
7	10073	45.688959614576	0.203333333334
7	10079	45.690626281243	0.408333333335
7	10114	46.443602490605	0.305000000001
7	10271	47.053835823938	0.305000000001
7	10299	47.057169157272	0.308333333335
7	10506	47.278410068283	0.203333333334
7	10553	47.348666705723	0.305000000001
7	10621	47.481743401617	0.305000000001
7	10812	47.889536010366	0.308333333335
7	10833	47.958933372392	0.305266666668
7	10913	48.089536010366	0.203333333334
7	10984	48.238383071637	0.203333333334
7	11233	48.570600039061	0.306666666668
7	11278	48.645049738305	0.406666666668
7	11395	48.887346548964	0.305000000001
7	11399	48.889013215631	0.205000000001
7	11624	51.671068392799	0.408333333335
7	11687	51.874401726133	0.306666666668
7	11766	53.705771530183	0.101666666667
7	11831	53.80743819685	0.101666666667
7	12010	54.523154386685	0.305000000001
7	12124	54.890005213082	0.101666666667
7	12355	55.298338546417	0.306666666668
7	12376	55.346487720019	0.406666666668
7	12781	56.159267975477	0.308333333335
7	12784	56.160221053355	0.406666666668
7	12794	56.161887720022	0.408333333335
7	12849	56.359267975477	0.305000000001
7	12853	56.366487720017	0.101666666667
8	183	6.231240476594	0.106666666668
8	319	6.432907143261	0.105000000001
8	437	6.562196983469	0.208333333335
8	525	6.763863650136	0.206666666668
8	627	6.880662817726	0.105000000001
8	727	7.017948112044	0.205000000001
8	751	7.042361935301	0.203333333334
8	973	7.332948112047	0.31666666667
8	1027	7.397329484396	0.31666666667
8	1033	7.449028601969	0.203333333334
8	1086	7.462361935305	0.21666666667
8	1354	8.920973136234	0.21666666667
8	1466	9.315973136233	0.205000000001
8	1672	10.288548626084	0.318333333337
8	1727	10.483548626083	0.208333333335
8	1749	12.123340372196	0.203333333334
8	1769	12.530029261086	0.203355555556
8	1939	12.938362594421	0.205000000001
8	2050	14.045955775093	0.105000000001
8	2143	14.257622441762	0.215000000003
8	2198	14.957432577353	0.203333333334
8	2254	15.364121466243	0.203355555556
8	2489	15.583256503779	0.21666666667
8	2606	15.774121466245	0.206666666668
8	2740	15.98825650378	0.31666666667
8	2881	16.205617291366	0.318333333337
8	2887	16.258485393765	0.203333333334
8	2916	16.297283958031	0.105000000001
8	3108	16.665218727099	0.203333333334
8	3138	16.668552060433	0.206666666668
8	3264	16.822306180258	0.318333333337
8	3340	17.013972846923	0.205000000001
8	3471	17.813827468801	0.105000000001
8	3553	18.018827468802	0.208333333335
8	3571	20.25821566778	0.101666666667
8	3583	20.461582334447	0.1017
8	3711	20.668249001115	0.105000000001
8	4022	22.333899955878	0.318333333337
8	4068	22.423899955876	0.205000000001
8	4111	22.513470917921	0.106666666668
8	4238	22.916804251255	0.205000000001
8	4351	23.623179443813	0.203333333334
8	4504	23.861861076221	0.318333333337
8	4586	24.029957221591	0.203333333334
8	4617	24.033290554925	0.206666666668
8	4662	24.063527742888	0.215000000003
8	4774	24.50074634558	0.203333333334
8	4794	24.907457456692	0.203377777778
8	4965	25.317457456694	0.206666666668
8	5195	26.250590180293	0.318333333337
8	5250	26.45225684696	0.31666666667
8	5408	26.998124998875	0.318333333337
8	5463	27.193124998874	0.208333333335
8	5678	28.368379009503	0.318333333337
8	5691	28.458379009501	0.205000000001
8	5718	29.20597050462	0.305000000001
8	5768	29.816137171287	0.305166666666
8	6047	30.437803837958	0.31666666667
8	6164	30.695613871441	0.318333333337
8	6193	30.787280538106	0.105000000001
8	6404	32.326164723489	0.208333333335
8	6565	32.536164723491	0.215000000003
8	6669	32.693066717839	0.318333333337
8	6682	32.743975751502	0.203333333334
8	6737	32.884733384504	0.205000000001
8	6858	33.150820195948	0.203333333334
8	6892	33.155820195949	0.208333333335
8	7154	33.631257446265	0.318333333337
8	7167	33.721257446263	0.205000000001
8	7268	35.018945032523	0.105000000001
8	7405	35.433945032526	0.31666666667
8	7508	35.772268473092	0.105000000001
8	7609	35.977268473093	0.208333333335
8	7752	36.200618992812	0.105000000001
8	7763	36.202285659479	0.208333333335
8	7986	38.178200039768	0.105000000001
8	8018	38.18820003977	0.21666666667
8	8169	38.440814915176	0.205000000001
8	8297	38.755814915179	0.31666666667
8	8317	38.940208505507	0.305000000001
8	8388	39.11203930772	0.105000000001
8	8588	39.417039307721	0.206666666668
8	8637	39.550508505509	0.305000000001
8	8676	39.563841838845	0.318333333337
8	8850	39.84290732884	0.208333333335
8	8950	40.052907328842	0.215000000003
8	9088	40.335014346982	0.205000000001
8	9137	40.436681013649	0.205000000001
8	9295	41.9056486619	0.208333333335
8	9349	42.104696352832	0.101666666667
8	9425	42.308107463943	0.101744444444
8	9464	42.318981995236	0.31666666667
8	9565	42.514774130611	0.105000000001
8	9775	44.037179363145	0.21666666667
8	9849	44.232179363144	0.208333333335
8	10016	45.498959614578	0.21666666667
8	10082	45.69229294791	0.206666666668
8	10310	47.067169157274	0.318333333337
8	10470	47.258835823939	0.205000000001
8	10491	47.275836010364	0.305000000001
8	10529	47.281743401617	0.105000000001
8	10538	47.283410068284	0.208333333335
8	10784	47.886202677032	0.305000000001
8	10823	47.899536010368	0.318333333337
8	11017	48.243383071638	0.208333333335
8	11173	48.45338307164	0.215000000003
8	11239	48.580600039063	0.31666666667
8	11329	48.687346548964	0.105000000001
8	11411	48.892346548965	0.208333333335
8	11565	51.479401726134	0.21666666667
8	11693	51.884401726135	0.31666666667
8	11804	53.709104863517	0.105000000001
8	11884	53.910771530184	0.205000000001
8	12204	54.993338546416	0.205000000001
8	12346	55.266776671766	0.305000000001
8	12362	55.308338546419	0.31666666667
8	12647	55.970221053357	0.21666666667
8	12779	56.159267975477	0.105000000001
8	12802	56.169267975479	0.318333333337
9	321	6.432907143261	0.308333333335
9	390	6.534573809928	0.206666666668
9	453	6.609614778709	0.203333333334
9	474	6.658863650135	0.101666666667
9	498	6.665530316803	0.311666666669
9	702	7.016281445377	0.203333333334
9	740	7.022948112045	0.210000000002
9	784	7.085662817727	0.310000000002
9	953	7.293996151062	0.213333333336
9	1140	7.560695268638	0.315000000003
9	1180	7.759028601971	0.310000000002
9	1374	9.019306469567	0.315000000003
9	1497	9.422639802901	0.311666666669
9	1622	10.18521529275	0.215000000003
9	1735	10.58521529275	0.310000000002
9	1921	12.840029261088	0.310000000002
9	1945	12.941695927755	0.208333333335
9	2087	14.14762244176	0.206666666668
9	2159	14.355955775095	0.313333333336
9	2216	15.061556503775	0.305000000001
9	2510	15.669121466244	0.101666666667
9	2522	15.67158983711	0.305000000001
9	2564	15.675788132912	0.311666666669
9	2577	15.68245479958	0.315864962471
9	2713	15.892164621103	0.305000000001
9	2821	16.102283958032	0.215000000003
9	2991	16.500617291365	0.308333333335
9	2997	16.503972846921	0.30668888889
9	3146	16.6702187271	0.208333333335
9	3327	16.975218727101	0.310000000002
9	3365	17.120639513591	0.311666666669
9	3515	17.915494135468	0.206666666668
9	3561	18.120494135469	0.310000000002
9	3745	20.769915667782	0.206666666668
9	3751	20.774915667783	0.313333333336
9	3865	22.082330096446	0.203333333334
9	3965	22.230566622544	0.215000000003
9	4074	22.42723328921	0.208333333335
9	4137	22.613470917921	0.206666666668
9	4269	23.023470917923	0.311666666669
9	4422	23.758527742887	0.215000000003
9	4708	24.138290554926	0.311666666669
9	4725	24.161861076221	0.313333333336
9	4764	24.339957221593	0.310000000002
9	4926	25.212457456693	0.101666666667
9	4950	25.219124123361	0.311666666669
9	4979	25.525479069178	0.203333333334
9	5007	25.932256846956	0.203444444444
9	5083	26.069691665537	0.305000000001
9	5224	26.348923513626	0.213333333336
9	5264	26.679791665538	0.3051
9	5471	27.294791665541	0.310000000002
9	5625	28.265045676169	0.215000000003
9	5697	28.461712342835	0.208333333335
9	5736	29.510970504621	0.305000000001
9	5894	30.121137171288	0.305000000001
9	5919	30.127803837956	0.311666666669
9	6114	30.592280538107	0.215000000003
9	6223	30.99061387144	0.308333333335
9	6476	32.429498056823	0.311666666669
9	6599	32.589733384505	0.215000000003
9	6620	32.634498056824	0.313333333336
9	6755	32.90614633515	0.203333333334
9	6801	32.991400051172	0.311666666669
9	6819	33.049153529281	0.101666666667
9	6943	33.312924112928	0.203444444444
9	7044	33.46082019595	0.310000000002
9	7173	33.724590779597	0.208333333335
9	7313	35.122278365857	0.208333333335
9	7381	35.330611699192	0.213333333336
9	7601	35.975601806426	0.308333333335
9	7651	36.07893513976	0.310000000002
9	7803	36.305618992813	0.311666666669
9	7815	36.403952326146	0.308333333335
9	7888	38.032326026287	0.203333333334
9	8067	38.279866706435	0.206666666668
9	8083	38.286533373103	0.315000000003
9	8144	38.439148248509	0.203333333334
9	8182	38.445814915177	0.210000000002
9	8506	39.31203930772	0.101666666667
9	8529	39.317039307721	0.310000000002
9	8622	39.460508505511	0.215000000003
9	8867	39.860508505511	0.310000000002
9	8898	39.946240662174	0.311666666669
9	8999	40.151240662175	0.313333333336
9	9143	40.440014346983	0.208333333335
9	9156	40.448347680318	0.318333333337
9	9335	42.008981995234	0.311666666669
9	9411	42.215648661902	0.213333333336
9	9606	42.618107463945	0.310000000002
9	9616	42.718107463945	0.308333333335
9	9825	44.135512696478	0.315000000003
9	9857	44.333846029811	0.310000000002
9	10030	45.587292947909	0.101666666667
9	10064	45.597292947911	0.315000000003
9	10244	46.96383582394	0.215000000003
9	10566	47.365502490607	0.311666666669
9	10590	47.383410068284	0.206666666668
9	10596	47.388410068285	0.313333333336
9	10677	47.653666705724	0.305000000001
9	10760	47.796202677034	0.215000000003
9	10975	48.196202677034	0.310000000002
9	11034	48.263933372393	0.305000000001
9	11086	48.346716404972	0.311666666669
9	11224	48.551716404973	0.313333333336
9	11373	48.789013215631	0.206666666668
9	11419	48.994013215632	0.310000000002
9	11608	51.577735059467	0.315000000003
9	11673	51.781068392801	0.213333333336
9	11893	53.914104863518	0.208333333335
9	11900	53.919104863519	0.315000000003
9	11951	54.218154386684	0.305000000001
9	12022	54.584805213081	0.203333333334
9	12169	54.961776671765	0.305000000001
9	12178	54.991671879749	0.203333333334
9	12217	54.998338546417	0.210000000002
9	12725	56.065934642145	0.215000000003
9	12731	56.06855438669	0.315000000003
9	12827	56.260934642144	0.206666666668

