version 2
run General-0-20190502-19:58:37-8592
attr configname General
attr datetime 20190502-19:58:37
attr experiment General
attr inifile omnetpp.ini
attr iterationvars ""
attr iterationvarsf ""
attr measurement ""
attr network networks.Net5
attr processid 8592
attr repetition 0
attr replication #0
attr resultdir results
attr runnumber 0
attr seedset 0
param **.appType "\"App\""
param **.app.packetLength "4096 bytes"
param **.destAddresses "\"0 1 2\""
param **.sendIaTime "uniform(1000ms, 3500ms)"

vector 0 Net5.rte[0].app endToEndDelay:vector ETV
attr interpolationmode none
attr title "end-to-end delay of arrived packets, vector"
attr unit s
vector 1 Net5.rte[1].app endToEndDelay:vector ETV
attr interpolationmode none
attr title "end-to-end delay of arrived packets, vector"
attr unit s
vector 2 Net5.rte[2].app endToEndDelay:vector ETV
attr interpolationmode none
attr title "end-to-end delay of arrived packets, vector"
attr unit s
0	7	1.978239065416	0.234402552278
0	20	2.466304792056	0.234402552278
0	50	2.954370518696	0.234402552278
0	60	3.520043184064	0.290610679673
0	67	3.659879801709	0.234402552278
0	82	4.010350117177	0.290610679673
0	122	4.50065705029	0.290610679673
0	125	4.57327882883	0.234402552278
0	147	5.06134455547	0.234402552278
0	156	5.158539220307	0.331597217115
0	169	5.502005166971	0.290610679673
0	181	5.992312100084	0.290610679673
0	204	6.228579987686	0.234402552278
0	226	6.482619033197	0.290610679673
0	230	6.716645714326	0.234402552278
0	264	7.204711440966	0.234402552278
0	273	7.486029447107	0.234402552278
0	294	7.974095173747	0.234402552278
0	297	8.071289838584	0.331597217115
0	305	9.230856868935	0.234402552278
0	317	9.718922595575	0.234402552278
1	14	2.231902239778	0.253663174362
1	35	2.719967966418	0.253663174362
1	43	2.794830951431	0.328526159375
1	79	3.913542976071	0.253663174362
1	105	4.264013291539	0.253663174362
1	112	4.338876276552	0.286304448308
1	118	4.420930973636	0.210884603019
1	132	4.826942003192	0.253663174362
1	165	5.315007729832	0.253663174362
1	209	6.245975274446	0.253663174362
1	218	6.402892956543	0.210884603019
1	221	6.482243162048	0.253663174362
1	245	6.970308888688	0.253663174362
1	256	7.045171873701	0.328526159375
1	267	7.251626894829	0.253663174362
1	279	7.739692621469	0.253663174362
1	311	9.484520043297	0.253663174362
2	32	2.666001045496	0.19969625344
2	47	2.944601428306	0.224633461888
2	72	3.719739437504	0.19969625344
2	98	4.210046370617	0.19969625344
2	109	4.303823161408	0.293473044231
2	144	5.05157546508	0.224633461888
2	162	5.26104080891	0.19969625344
2	175	5.701701420411	0.19969625344
2	197	6.192008353524	0.19969625344
2	213	6.285785144315	0.293473044231
2	242	6.916341967766	0.19969625344
2	261	7.194942350576	0.224633461888
2	291	7.964326083357	0.224633461888

