version 2
run General-8-20190610-18:03:51-9472
attr configname General
attr datetime 20190610-18:03:51
attr experiment General
attr inifile omnetpp.ini
attr iterationvars ""
attr iterationvarsf ""
attr measurement ""
attr network networks.Net5
attr processid 9472
attr repetition 8
attr replication #8
attr resultdir results
attr runnumber 8
attr seedset 8
param **.appType "\"App\""
param **.app.packetLength "1500 bytes"
param **.app.totalNodes 10
param **.destAddresses "\"0\""
param **.sendIaTime "uniform(5s, 10s)"
param **.sendIaTimeEvil 10ms

vector 0 Net5.rte[5].app endToEndDelay:vector ETV
attr interpolationmode none
attr title "end-to-end delay of arrived packets, vector"
attr unit s
vector 1 Net5.rte[1].app endToEndDelay:vector ETV
attr interpolationmode none
attr title "end-to-end delay of arrived packets, vector"
attr unit s
vector 2 Net5.rte[6].app endToEndDelay:vector ETV
attr interpolationmode none
attr title "end-to-end delay of arrived packets, vector"
attr unit s
vector 3 Net5.rte[7].app endToEndDelay:vector ETV
attr interpolationmode none
attr title "end-to-end delay of arrived packets, vector"
attr unit s
vector 4 Net5.rte[3].app endToEndDelay:vector ETV
attr interpolationmode none
attr title "end-to-end delay of arrived packets, vector"
attr unit s
vector 5 Net5.rte[4].app endToEndDelay:vector ETV
attr interpolationmode none
attr title "end-to-end delay of arrived packets, vector"
attr unit s
vector 6 Net5.rte[0].app endToEndDelay:vector ETV
attr interpolationmode none
attr title "end-to-end delay of arrived packets, vector"
attr unit s
vector 7 Net5.rte[2].app endToEndDelay:vector ETV
attr interpolationmode none
attr title "end-to-end delay of arrived packets, vector"
attr unit s
vector 8 Net5.rte[8].app endToEndDelay:vector ETV
attr interpolationmode none
attr title "end-to-end delay of arrived packets, vector"
attr unit s
vector 9 Net5.rte[9].app endToEndDelay:vector ETV
attr interpolationmode none
attr title "end-to-end delay of arrived packets, vector"
attr unit s
0	11	5.258905523656	0.203333333334
0	31	5.665572190324	0.203333333334
0	193	6.077238856993	0.208333333335
0	368	6.707197857548	0.103333333334
0	390	6.712197857549	0.210000000002
0	452	7.294251547128	0.203333333334
0	552	7.700940436018	0.203333333334
0	584	7.704273769352	0.206666666668
0	725	8.138454043731	0.111666666669
0	860	8.538454043731	0.206666666668
0	907	9.447639359494	0.101666666667
0	939	9.650972692828	0.101666666667
0	1101	9.797306422063	0.105000000001
0	1145	9.857639359496	0.105000000001
0	1294	10.005639755398	0.110000000002
0	1424	10.185480350374	0.208333333335
0	1518	10.390480350375	0.210000000002
0	1625	10.86940332498	0.111666666669
0	1757	11.267736658313	0.205000000001
0	1809	12.421493995203	0.203333333334
0	1886	12.651532378374	0.111666666669
0	1964	12.828227328537	0.2034
0	2016	12.846532378373	0.103333333334
0	2186	13.238227328539	0.206666666668
0	2251	14.104305068463	0.101666666667
0	2399	14.307682846241	0.101666666667
0	2444	14.312682846242	0.106666666668
0	2506	14.39589794791	0.205000000001
0	2646	14.500897947911	0.208333333335
0	2729	14.598681636054	0.211666666669
0	2826	14.797014969387	0.206666666668
0	3028	15.501470637189	0.106666666668
0	3074	15.514566753139	0.208333333335
0	3205	15.708137303857	0.110000000002
0	3232	15.71956675314	0.210000000002
0	3454	16.526542926527	0.105000000001
0	3467	16.531542926528	0.211666666669
0	3590	17.214615692077	0.111666666669
0	3693	17.416282358744	0.110000000002
0	3868	18.853532021196	0.111666666669
0	4003	19.253532021196	0.206666666668
0	4043	19.876690049123	0.203333333334
0	4134	20.283467826901	0.203333333334
0	4172	20.288467826902	0.208333333335
0	4395	21.255054619466	0.211666666669
0	4481	21.4583879528	0.110000000002
0	4679	23.624515609775	0.111666666669
0	4780	23.904801770545	0.203333333334
0	4832	24.024515609775	0.206666666668
0	4863	24.311557326101	0.203422222222
0	5032	24.724890659437	0.210000000002
0	5138	25.245010734697	0.103333333334
0	5255	25.550010734698	0.205000000001
0	5400	25.948867151375	0.103333333334
0	5422	25.953867151376	0.210000000002
0	5468	26.544391779894	0.101666666667
0	5507	26.747802891005	0.101666666667
0	5557	26.757802891007	0.111666666669
0	5819	28.586503515509	0.206666666668
0	5899	28.789836848843	0.206666666668
0	5974	28.999903515511	0.103333333334
0	6098	29.409903515513	0.208333333335
0	6315	30.089338841596	0.208333333335
0	6343	30.187672174929	0.205000000001
0	6466	30.471079266039	0.211666666669
0	6562	30.674412599373	0.110000000002
0	6708	31.114670118977	0.111666666669
0	6840	31.311336785643	0.105000000001
0	6892	31.316106962034	0.103333333334
0	7013	31.521106962035	0.206666666668
0	7211	32.492991874673	0.208333333335
0	7324	32.699658541341	0.110000000002
0	7512	32.846433152726	0.208333333335
0	7563	32.919928109518	0.210000000002
0	7670	33.051433152727	0.210000000002
0	7706	33.118261442851	0.103333333334
0	7900	34.996494196659	0.211666666669
0	8034	35.399827529993	0.208333333335
0	8191	35.621773663663	0.206666666668
0	8220	35.721773663663	0.205000000001
0	8264	36.461375923527	0.203333333334
0	8358	36.868220367973	0.203333333334
0	8390	36.871553701307	0.206666666668
0	8613	39.003723679951	0.211666666669
0	8711	39.207057013285	0.110000000002
0	8892	39.508026866031	0.105000000001
0	8905	39.513026866032	0.211666666669
0	9108	40.958342076661	0.210000000002
0	9189	41.156675409994	0.103333333334
0	9295	41.671850218539	0.111666666669
0	9398	41.949966123061	0.101666666667
0	9484	42.075183551873	0.210000000002
0	9505	42.153399456395	0.101666666667
0	9550	42.158399456396	0.106666666668
0	9660	43.786439209213	0.203333333334
0	9692	44.193328098103	0.203555555556
0	9868	44.603328098105	0.206666666668
0	9985	45.054030052162	0.211666666669
0	10090	45.352363385495	0.205000000001
0	10114	47.728979027231	0.101666666667
0	10130	47.932445693898	0.1018
0	10270	48.144112360567	0.110000000002
0	10418	48.562915014689	0.105000000001
0	10519	48.771248348024	0.110000000002
0	10662	48.967913320052	0.111666666669
0	10830	49.096947571128	0.205000000001
0	10887	49.164579986718	0.105000000001
0	10923	49.200280904462	0.206666666668
0	11018	49.656330005664	0.203333333334
0	11183	49.902758679716	0.103333333334
0	11210	49.909425346384	0.211666666669
0	11297	50.063263338998	0.203333333334
0	11339	50.069930005666	0.210000000002
0	11478	50.650575658507	0.203333333334
0	11523	50.718919034079	0.103333333334
0	11622	50.927252367414	0.210000000002
0	11659	51.057420102953	0.203511111112
0	11824	51.469086769622	0.208333333335
0	11948	53.550722459002	0.111666666669
0	12080	53.949055792335	0.205000000001
0	12267	55.430953048371	0.211666666669
0	12346	55.629286381704	0.206666666668
0	12501	56.368816676331	0.106666666668
0	12577	56.541910386145	0.101666666667
0	12603	56.575483342999	0.110000000002
0	12759	56.838403728527	0.205000000001
0	12798	56.940070395194	0.103333333334
0	13070	58.61376528123	0.103333333334
0	13234	58.891948000373	0.211666666669
0	13395	59.190281333706	0.205000000001
0	13613	59.729596575411	0.208333333335
0	13712	59.934596575412	0.210000000002
1	21	5.46223885699	0.203333333334
1	102	5.868905523658	0.203333333334
1	126	5.870572190325	0.205000000001
1	354	6.705531190881	0.203333333334
1	427	6.908864524215	0.305000000001
1	517	7.599273769351	0.101666666667
1	652	7.904273769352	0.203333333334
1	801	8.335120710397	0.308333333335
1	855	8.535120710397	0.203333333334
1	1125	9.854306026162	0.101666666667
1	1136	9.855972692829	0.205000000001
1	1273	9.997306422063	0.305000000001
1	1392	10.180480350373	0.203333333334
1	1445	10.202306422064	0.306666666668
1	1561	10.587147017041	0.406666666668
1	1703	11.066069991646	0.308333333335
1	1725	11.164403324979	0.101666666667
1	2027	12.84819904504	0.308333333335
1	2099	13.031560661871	0.203333333334
1	2141	13.04819904504	0.305000000001
1	2181	13.234893995205	0.203333333334
1	2245	14.089220170131	0.101666666667
1	2339	14.292564614576	0.101666666667
1	2370	14.294231281243	0.103333333334
1	2400	14.307682846241	0.101666666667
1	2670	14.511016179575	0.203333333334
1	2821	14.793681636053	0.203333333334
1	2844	14.800348302721	0.413333333336
1	3007	15.496470637188	0.101666666667
1	3042	15.509566753138	0.203333333334
1	3297	15.904803970523	0.306666666668
1	3306	15.916233419806	0.406666666668
1	3369	16.421542926526	0.101666666667
1	3435	16.523209593193	0.101666666667
1	3678	17.411282358743	0.308333333335
1	3746	17.61294902541	0.306666666668
1	3944	19.050198687862	0.308333333335
1	3998	19.250198687862	0.203333333334
1	4135	20.283467826901	0.203333333334
1	4244	20.486801160235	0.203333333334
1	4337	21.109623913054	0.406666666668
1	4465	21.451721286132	0.408333333335
1	4532	21.655054619466	0.306666666668
1	4763	23.821182276441	0.308333333335
1	4827	24.021182276441	0.203333333334
1	4935	24.514890659435	0.203333333334
1	5075	24.921557326103	0.406666666668
1	5214	25.446677401364	0.101666666667
1	5226	25.448344068031	0.306666666668
1	5386	25.947200484708	0.203333333334
1	5455	26.150533818042	0.305000000001
1	5636	26.951136224339	0.203333333334
1	5648	26.95613622434	0.310000000002
1	5814	28.584836848842	0.205000000001
1	5841	28.59150351551	0.309491413016
1	5894	28.786503515509	0.203333333334
1	6013	29.201570182178	0.305000000001
1	6036	29.203236848845	0.306666666668
1	6143	29.677616619372	0.101666666667
1	6163	29.881005508261	0.101722222222
1	6280	30.084338841595	0.101666666667
1	6546	30.667745932705	0.408333333335
1	6619	30.871079266039	0.306666666668
1	6820	31.308003452309	0.101666666667
1	6842	31.311336785643	0.308333333335
1	7008	31.517773628701	0.203333333334
1	7027	31.524440295369	0.311666666669
1	7081	32.099694776183	0.305000000001
1	7199	32.487991874672	0.203333333334
1	7339	32.709928109516	0.305233333332
1	7480	32.841433152725	0.203333333334
1	7533	32.896325208007	0.306666666668
1	7754	33.248099819393	0.406666666668
1	7757	33.319928109518	0.305000000001
1	7794	34.377938641102	0.406666666668
1	7941	35.191494196658	0.406666666668
1	7964	35.193160863325	0.408333333335
1	8168	35.618440330329	0.101666666667
1	8180	35.620106996996	0.205000000001
1	8328	36.766553701306	0.101666666667
1	8448	37.071553701307	0.203333333334
1	8694	39.200390346617	0.408333333335
1	8799	39.40302686603	0.101666666667
1	8821	39.403723679951	0.306666666668
1	8873	39.504693532697	0.101666666667
1	8959	40.13807540999	0.305000000001
1	9006	40.748342076659	0.305266666668
1	9230	41.358342076661	0.305000000001
1	9379	41.868516885205	0.308333333335
1	9506	42.153399456395	0.101666666667
1	9631	42.271850218539	0.406666666668
1	9637	42.356732789729	0.203333333334
1	9774	44.396661431437	0.203333333334
1	9863	44.599994764771	0.203333333334
1	10055	45.249030052161	0.101666666667
1	10067	45.250696718828	0.408333333335
1	10240	48.135779027232	0.203333333334
1	10331	48.340779027233	0.306666666668
1	10498	48.762915014689	0.305000000001
1	10665	48.96791501469	0.306666666668
1	10697	48.993614237794	0.101666666667
1	10867	49.161246653384	0.101666666667
1	10889	49.164579986718	0.308333333335
1	10913	49.196947571128	0.203333333334
1	10986	49.45299667233	0.203333333334
1	11133	49.859930005664	0.2036
1	11352	50.104425346383	0.305000000001
1	11355	50.109425346384	0.411666666669
1	11406	50.266596672332	0.203333333334
1	11601	50.853908991841	0.203333333334
1	11609	50.920585700746	0.305000000001
1	11692	51.12391903408	0.406666666668
1	11733	51.260753436287	0.203333333334
1	11757	51.262420102954	0.205000000001
1	12026	53.747389125668	0.308333333335
1	12048	53.845722459001	0.101666666667
1	12341	55.62595304837	0.203333333334
1	12360	55.632619715038	0.413333333336
1	12393	55.950491346154	0.203333333334
1	12480	56.36381667633	0.101666666667
1	12687	56.735070395193	0.101666666667
1	12719	56.772150009665	0.306666666668
1	12836	57.141737061861	0.305000000001
1	12948	58.205131947895	0.305000000001
1	13202	58.815431947897	0.305000000001
1	13205	58.817098614564	0.306666666668
1	13340	59.086948000372	0.101666666667
1	13352	59.088614667039	0.408333333335
1	13563	59.638465281229	0.406666666668
1	13580	59.72459657541	0.203333333334
1	13775	60.131263242078	0.406666666668
1	13795	60.255131947895	0.305000000001
2	72	5.767238856991	0.101666666667
2	215	6.180572190327	0.311666666669
2	411	6.810531190882	0.206666666668
2	417	6.815531190883	0.313333333336
2	466	7.416754043727	0.305000000001
2	615	7.802607102685	0.101666666667
2	638	7.807607102686	0.310000000002
2	668	8.026787377062	0.305033333334
2	875	8.641787377065	0.310000000002
2	1017	9.752639359495	0.101666666667
2	1203	9.900639755397	0.208333333335
2	1232	9.96097269283	0.208333333335
2	1372	10.108973088732	0.213333333336
2	1383	10.147703324976	0.305000000001
2	1479	10.288813683708	0.311666666669
2	1551	10.493813683709	0.313333333336
2	1568	10.757736658311	0.305033333334
2	1771	11.371069991647	0.308333333335
2	1785	12.133154600593	0.203333333334
2	1823	12.539865711705	0.203377777778
2	2052	12.929893995204	0.101666666667
2	2090	12.949865711707	0.206666666668
2	2201	13.341560661873	0.310000000002
2	2551	14.409349512908	0.101666666667
2	2584	14.416016179576	0.210000000002
2	2637	14.499231281244	0.308333333335
2	2748	14.604231281245	0.311666666669
2	2808	14.702014969388	0.315000000003
2	2857	14.900348302721	0.310000000002
2	2884	15.191403970521	0.203333333334
2	3092	15.598137303855	0.203333333334
2	3130	15.604803970523	0.210000000002
2	3159	15.617900086473	0.311666666669
2	3288	15.822900086474	0.313333333336
2	3498	16.629876259861	0.208333333335
2	3504	16.634876259862	0.315000000003
2	3510	16.696260136518	0.203333333334
2	3533	17.102949025408	0.203355555556
2	3732	17.519615692078	0.213333333336
2	3770	18.13169868786	0.305000000001
2	3811	18.741865354527	0.305166666666
2	4018	19.35686535453	0.310000000002
2	4201	20.385134493568	0.101666666667
2	4225	20.391801160236	0.311666666669
2	4278	20.738187952798	0.305000000001
2	4412	21.348387952798	0.305000000001
2	4449	21.3583879528	0.315000000003
2	4594	22.902815609771	0.305000000001
2	4622	23.512848943106	0.305033333334
2	4853	24.127848943109	0.310000000002
2	4904	24.413223992768	0.101666666667
2	5065	24.828223992771	0.313333333336
2	5194	25.348344068031	0.206666666668
2	5275	25.653344068032	0.308333333335
2	5443	26.052200484709	0.206666666668
2	5449	26.05720048471	0.313333333336
2	5580	26.849469557672	0.101666666667
2	5622	26.861136224341	0.215000000003
2	5875	28.689836848843	0.310000000002
2	5918	28.893170182177	0.310000000002
2	6007	29.103236848845	0.206666666668
2	6120	29.513236848847	0.311666666669
2	6196	29.954145932702	0.305000000001
2	6356	30.19267217493	0.311666666669
2	6401	30.291005508263	0.308333333335
2	6487	30.564412599371	0.305000000001
2	6524	30.574412599373	0.315000000003
2	6533	30.596247896752	0.203333333334
2	6639	31.003003452308	0.203422222222
2	6942	31.414670118977	0.208333333335
2	6971	31.419440295368	0.206666666668
2	7035	31.624440295369	0.310000000002
2	7256	32.596325208007	0.311666666669
2	7428	32.802991874675	0.213333333336
2	7592	32.94976648606	0.311666666669
2	7652	33.023261442852	0.313333333336
2	7732	33.154766486061	0.313333333336
2	7748	33.221594776185	0.206666666668
2	7931	35.099827529993	0.315000000003
2	8085	35.503160863327	0.311666666669
2	8230	35.725106996997	0.310000000002
2	8240	35.825106996997	0.308333333335
2	8415	36.96988703464	0.101666666667
2	8438	36.974887034641	0.310000000002
2	8476	38.065566128784	0.203333333334
2	8507	38.486723679948	0.305000000001
2	8630	39.097057013283	0.305000000001
2	8673	39.107057013285	0.315000000003
2	8932	39.611360199365	0.208333333335
2	8938	39.616360199366	0.315000000003
2	9084	40.949883551868	0.305000000001
2	9160	41.061675409995	0.313333333336
2	9221	41.260008743328	0.206666666668
2	9238	41.56018355187	0.305300000001
2	9574	42.178516885207	0.313333333336
2	9588	42.255066123062	0.101666666667
2	9621	42.26173278973	0.210000000002
2	9739	44.29499476477	0.101666666667
2	9887	44.706661431439	0.310000000002
2	10042	45.157363385496	0.315000000003
2	10104	45.455696718829	0.308333333335
2	10120	47.830645693898	0.101666666667
2	10173	48.034112360565	0.101666666667
2	10204	48.035779027232	0.103333333334
2	10351	48.449424431161	0.203333333334
2	10474	48.666248348023	0.208333333335
2	10540	48.856246653383	0.203488888888
2	10591	48.874581681358	0.213333333336
2	10925	49.200280904462	0.308333333335
2	10959	49.267913320052	0.208333333335
2	10965	49.303614237796	0.310000000002
2	11275	50.00609201305	0.206666666668
2	11291	50.012758679718	0.315000000003
2	11366	50.164930005665	0.101666666667
2	11397	50.173263339	0.313333333336
2	11571	50.822252367413	0.206666666668
2	11653	51.030585700748	0.313333333336
2	11703	51.15908676962	0.101666666667
2	11842	51.572420102956	0.311666666669
2	11863	52.828689125665	0.305000000001
2	11891	53.439055792333	0.305366666667
2	12094	54.052389125669	0.308333333335
2	12285	55.440686709612	0.305000000001
2	12332	55.534286381705	0.315000000003
2	12368	55.732619715038	0.310000000002
2	12562	56.472150009665	0.210000000002
2	12669	56.678816676333	0.213333333336
2	12809	56.941737061861	0.308333333335
2	12830	57.043403728528	0.206666666668
2	13147	58.717098614564	0.206666666668
2	13310	58.995281333707	0.315000000003
2	13429	59.29361466704	0.308333333335
2	13663	59.832929908745	0.311666666669
2	13731	59.950131947894	0.305000000001
2	13756	60.037929908746	0.313333333336
2	13839	60.560431947896	0.305300000001
3	73	5.767238856991	0.101666666667
3	218	6.182238856994	0.313333333336
3	414	6.812197857549	0.208333333335
3	420	6.81719785755	0.315000000003
3	616	7.802607102685	0.101666666667
3	642	7.809273769353	0.311666666669
3	762	8.241787377065	0.215000000003
3	878	8.643454043732	0.311666666669
3	917	9.488973088728	0.203333333334
3	1018	9.752639359495	0.101666666667
3	1171	9.895639755396	0.203333333334
3	1207	9.902306422064	0.210000000002
3	1235	9.962639359497	0.210000000002
3	1486	10.290480350375	0.313333333336
3	1554	10.495480350376	0.315000000003
3	1662	10.972736658314	0.215000000003
3	1774	11.372736658314	0.310000000002
3	1953	12.754865711708	0.215000000003
3	2053	12.929893995204	0.101666666667
3	2093	12.951532378374	0.208333333335
3	2204	13.34322732854	0.311666666669
3	2552	14.409349512908	0.101666666667
3	2591	14.417682846243	0.211666666669
3	2647	14.500897947911	0.310000000002
3	2754	14.605897947912	0.313333333336
3	2811	14.703681636055	0.31666666667
3	2861	14.902014969388	0.311666666669
3	3134	15.60647063719	0.211666666669
3	3166	15.61956675314	0.313333333336
3	3267	15.811470637191	0.213333333336
3	3291	15.824566753141	0.315000000003
3	3501	16.631542926528	0.210000000002
3	3507	16.636542926529	0.31666666667
3	3523	16.899593469852	0.203333333334
3	3605	17.306282358742	0.203333333334
3	3651	17.317949025411	0.215000000003
3	3905	18.95686535453	0.215000000003
3	4021	19.358532021197	0.311666666669
3	4202	20.385134493568	0.101666666667
3	4228	20.393467826903	0.313333333336
3	4453	21.360054619467	0.31666666667
3	4514	21.561721286134	0.213333333336
3	4562	21.908235272127	0.203333333334
3	4576	22.059634276365	0.203333333334
3	4720	23.727848943109	0.215000000003
3	4856	24.129515609776	0.311666666669
3	4905	24.413223992768	0.101666666667
3	5068	24.829890659438	0.315000000003
3	5199	25.350010734698	0.208333333335
3	5278	25.655010734699	0.310000000002
3	5446	26.053867151376	0.208333333335
3	5452	26.058867151377	0.315000000003
3	5462	26.442725113227	0.101666666667
3	5474	26.646136224338	0.101744444444
3	5581	26.849469557672	0.101666666667
3	5883	28.69150351551	0.311666666669
3	5921	28.894836848844	0.311666666669
3	6010	29.104903515512	0.208333333335
3	6123	29.514903515514	0.313333333336
3	6359	30.194338841597	0.313333333336
3	6404	30.29267217493	0.310000000002
3	6528	30.57607926604	0.31666666667
3	6599	30.777745932707	0.213333333336
3	6802	31.218003452311	0.215000000003
3	6954	31.416336785644	0.210000000002
3	6982	31.421106962035	0.208333333335
3	7038	31.626106962036	0.311666666669
3	7063	31.979558541338	0.305000000001
3	7231	32.589658541339	0.305000000001
3	7260	32.597991874674	0.313333333336
3	7599	32.951433152727	0.313333333336
3	7655	33.024928109519	0.315000000003
3	7735	33.156433152728	0.315000000003
3	7751	33.223261442852	0.208333333335
3	7934	35.10149419666	0.31666666667
3	8088	35.504827529994	0.313333333336
3	8234	35.726773663664	0.311666666669
3	8243	35.826773663664	0.310000000002
3	8416	36.96988703464	0.101666666667
3	8442	36.976553701308	0.311666666669
3	8496	38.268899462118	0.203333333334
3	8677	39.108723679952	0.31666666667
3	8777	39.310390346619	0.213333333336
3	8935	39.613026866032	0.210000000002
3	8941	39.618026866033	0.31666666667
3	9163	41.063342076662	0.315000000003
3	9224	41.261675409995	0.208333333335
3	9336	41.775183551873	0.215000000003
3	9577	42.180183551874	0.315000000003
3	9589	42.255066123062	0.101666666667
3	9628	42.263399456397	0.211666666669
3	9740	44.29499476477	0.101666666667
3	9890	44.708328098106	0.311666666669
3	10045	45.159030052163	0.31666666667
3	10107	45.457363385496	0.310000000002
3	10176	48.034112360565	0.101666666667
3	10310	48.247445693901	0.213333333336
3	10322	48.254492792466	0.203333333334
3	10442	48.661248348022	0.203333333334
3	10478	48.66791501469	0.210000000002
3	10799	49.071246653386	0.215000000003
3	10934	49.201947571129	0.310000000002
3	10962	49.269579986719	0.210000000002
3	10968	49.305280904463	0.311666666669
3	11281	50.007758679717	0.208333333335
3	11294	50.014425346385	0.31666666667
3	11367	50.164930005665	0.101666666667
3	11400	50.174930005667	0.315000000003
3	11577	50.82391903408	0.208333333335
3	11656	51.032252367415	0.315000000003
3	11704	51.15908676962	0.101666666667
3	11845	51.574086769623	0.313333333336
3	11985	53.654055792336	0.215000000003
3	12097	54.054055792336	0.310000000002
3	12335	55.535953048372	0.31666666667
3	12371	55.734286381705	0.311666666669
3	12411	56.058705565219	0.203333333334
3	12524	56.465483342997	0.203333333334
3	12566	56.473816676332	0.211666666669
3	12816	56.943403728528	0.310000000002
3	12833	57.045070395195	0.208333333335
3	13150	58.718765281231	0.208333333335
3	13313	58.996948000374	0.31666666667
3	13433	59.295281333707	0.310000000002
3	13670	59.834596575412	0.313333333336
3	13759	60.039596575413	0.315000000003
4	81	5.768905523658	0.103333333334
4	212	6.175572190326	0.306666666668
4	225	6.265308300133	0.101666666667
4	243	6.40053119088	0.101666666667
4	284	6.603864524214	0.101666666667
4	322	6.607197857548	0.105000000001
4	579	7.702607102685	0.205000000001
4	623	7.804273769352	0.103333333334
4	756	8.236787377064	0.210000000002
4	828	8.435120710397	0.103333333334
4	889	9.285639755394	0.203333333334
4	976	9.692306422062	0.203333333334
4	1046	9.754306026162	0.103333333334
4	1225	9.957639359496	0.205000000001
4	1333	10.08214701704	0.105000000001
4	1366	10.103973088731	0.208333333335
4	1469	10.285480350374	0.105000000001
4	1656	10.967736658313	0.210000000002
4	1756	11.267736658313	0.205000000001
4	1803	12.336487933927	0.203333333334
4	1905	12.743199045039	0.203333333334
4	1947	12.749865711707	0.210000000002
4	2068	12.933227328538	0.105000000001
4	2154	13.134893995205	0.103333333334
4	2505	14.39589794791	0.205000000001
4	2561	14.411016179575	0.103333333334
4	2590	14.417682846243	0.211666666669
4	2606	14.493681636053	0.106666666668
4	2733	14.599231281244	0.306666666668
4	2767	14.693681636053	0.103333333334
4	2981	15.411233419805	0.105000000001
4	3124	15.601470637189	0.206666666668
4	3149	15.614566753139	0.105000000001
4	3261	15.80647063719	0.208333333335
4	3447	16.52487625986	0.205000000001
4	3491	16.626542926527	0.205000000001
4	3642	17.31294902541	0.210000000002
4	3726	17.514615692077	0.208333333335
4	3899	18.951865354529	0.210000000002
4	3971	19.150198687862	0.103333333334
4	4107	20.185134493568	0.105000000001
4	4209	20.386801160235	0.103333333334
4	4352	21.150054619465	0.106666666668
4	4508	21.556721286133	0.208333333335
4	4714	23.722848943108	0.210000000002
4	4796	23.921182276441	0.103333333334
4	4920	24.416557326102	0.105000000001
4	4989	24.619890659436	0.105000000001
4	5049	24.734921845807	0.203333333334
4	5088	25.141677401363	0.203422222222
4	5254	25.550010734698	0.205000000001
4	5266	25.642156040263	0.101666666667
4	5316	25.845533818041	0.101666666667
4	5354	25.848867151375	0.105000000001
4	5588	26.851136224339	0.103333333334
4	5618	26.857802891007	0.211666666669
4	5703	28.282012102494	0.305000000001
4	5757	28.483170182175	0.103333333334
4	5857	28.686503515509	0.103333333334
4	5924	28.896570182177	0.305066666667
4	6117	29.508236848846	0.306666666668
4	6342	30.187672174929	0.205000000001
4	6344	30.187672174929	0.306666666668
4	6419	30.366079266038	0.106666666668
4	6593	30.772745932706	0.208333333335
4	6665	31.009395850922	0.101666666667
4	6762	31.2127736287	0.101711111111
4	6787	31.21300345231	0.210000000002
4	6935	31.411336785643	0.205000000001
4	6961	31.417773628701	0.103333333334
4	7163	32.389658541339	0.105000000001
4	7184	32.404694776184	0.305000000001
4	7389	32.743099819392	0.105000000001
4	7422	32.797991874674	0.208333333335
4	7582	32.946433152726	0.105000000001
4	7615	33.014928109517	0.305000000001
4	7646	33.018261442851	0.308333333335
4	7857	34.891494196658	0.106666666668
4	8082	35.498160863326	0.306666666668
4	8123	35.518440330329	0.103333333334
4	8219	35.721773663663	0.205000000001
4	8385	36.86988703464	0.205000000001
4	8423	36.971553701307	0.103333333334
4	8566	38.89872367995	0.106666666668
4	8767	39.305390346618	0.208333333335
4	8885	39.506360199364	0.205000000001
4	8925	39.608026866031	0.205000000001
4	8973	40.443075409991	0.305000000001
4	8996	40.658551894228	0.101666666667
4	9123	41.05334207666	0.305000000001
4	9154	41.056675409994	0.308333333335
4	9330	41.770183551872	0.210000000002
4	9412	41.970183551872	0.105000000001
4	9598	42.256732789729	0.103333333334
4	9627	42.263399456397	0.211666666669
4	9755	44.298328098104	0.105000000001
4	9830	44.499994764771	0.103333333334
4	9942	44.949030052161	0.106666666668
4	10089	45.352363385495	0.205000000001
4	10205	48.035779027232	0.103333333334
4	10229	48.051159459132	0.203333333334
4	10301	48.2424456939	0.208333333335
4	10357	48.457915014688	0.203422222222
4	10583	48.869581681357	0.208333333335
4	10792	49.066246653385	0.210000000002
4	10827	49.096947571128	0.103333333334
4	10829	49.096947571128	0.205000000001
4	10952	49.264579986718	0.205000000001
4	11006	49.595980901937	0.101666666667
4	11065	49.799425346382	0.101666666667
4	11100	49.804425346383	0.106666666668
4	11374	50.166596672332	0.103333333334
4	11396	50.173263339	0.313333333336
4	11425	50.412119034078	0.101666666667
4	11445	50.615585700745	0.1018
4	11570	50.822252367413	0.105000000001
4	11712	51.160753436287	0.103333333334
4	11839	51.567420102955	0.306666666668
4	11979	53.649055792335	0.210000000002
4	12079	53.949055792335	0.205000000001
4	12195	55.32595304837	0.106666666668
4	12298	55.52595304837	0.103333333334
4	12512	56.429803728526	0.203333333334
4	12518	56.440243719478	0.101666666667
4	12556	56.468816676331	0.206666666668
4	12663	56.673816676332	0.208333333335
4	12731	56.83673706186	0.203333333334
4	12767	56.840070395194	0.206666666668
4	12889	57.900131947894	0.305000000001
4	13006	58.510431947896	0.305300000001
4	13172	58.786948000372	0.106666666668
4	13394	59.190281333706	0.205000000001
4	13541	59.626263242077	0.105000000001
4	13653	59.829596575411	0.105000000001
5	95	5.772238856992	0.106666666668
5	162	5.973905523659	0.105000000001
5	379	6.708864524215	0.206666666668
5	404	6.807197857548	0.203333333334
5	525	7.600940436018	0.103333333334
5	631	7.805940436019	0.105000000001
5	759	8.238454043731	0.211666666669
5	861	8.538454043731	0.206666666668
5	923	9.549306026161	0.101666666667
5	1015	9.752639359495	0.101666666667
5	1063	9.757639359496	0.106666666668
5	1197	9.897306422063	0.205000000001
5	1369	10.105639755398	0.210000000002
5	1418	10.183813683707	0.206666666668
5	1548	10.490480350375	0.310000000002
5	1659	10.96940332498	0.211666666669
5	1726	11.164403324979	0.101666666667
5	1950	12.751532378374	0.211666666669
5	2069	12.933227328538	0.105000000001
5	2083	12.946532378373	0.203333333334
5	2187	13.238227328539	0.206666666668
5	2235	14.002638401796	0.101666666667
5	2296	14.206016179574	0.101711111111
5	2341	14.292564614576	0.101666666667
5	2516	14.397564614577	0.105000000001
5	2572	14.412682846242	0.105000000001
5	2797	14.698681636054	0.311666666669
5	2827	14.797014969387	0.206666666668
5	2864	14.988070637187	0.203333333334
5	2931	15.394803970521	0.2034
5	3068	15.512900086472	0.206666666668
5	3264	15.808137303857	0.210000000002
5	3285	15.81956675314	0.310000000002
5	3322	16.218176259859	0.101666666667
5	3367	16.421542926526	0.101666666667
5	3397	16.423209593193	0.103333333334
5	3646	17.314615692077	0.211666666669
5	3729	17.516282358744	0.210000000002
5	3902	18.953532021196	0.211666666669
5	4004	19.253532021196	0.206666666668
5	4165	20.286801160235	0.206666666668
5	4217	20.388467826902	0.105000000001
5	4444	21.355054619466	0.311666666669
5	4511	21.5583879528	0.210000000002
5	4556	21.856300943031	0.203333333334
5	4579	22.111568605461	0.203333333334
5	4717	23.724515609775	0.211666666669
5	4833	24.024515609775	0.206666666668
5	4921	24.416557326102	0.105000000001
5	5062	24.824890659437	0.310000000002
5	5160	25.345010734697	0.203333333334
5	5215	25.446677401364	0.101666666667
5	5411	25.950533818042	0.206666666668
5	5436	26.048867151375	0.203333333334
5	5596	26.852802891006	0.105000000001
5	5619	26.857802891007	0.211666666669
5	5826	28.588170182176	0.208333333335
5	5900	28.789836848843	0.206666666668
5	5996	29.099903515511	0.203333333334
5	6063	29.306570182179	0.105000000001
5	6243	29.986005508262	0.105000000001
5	6281	30.084338841595	0.101666666667
5	6519	30.571079266039	0.311666666669
5	6596	30.774412599373	0.210000000002
5	6610	30.799581230086	0.203333333334
5	6723	31.206336785642	0.203333333334
5	6795	31.214670118977	0.211666666669
5	6949	31.416106962034	0.203333333334
5	7014	31.521106962035	0.206666666668
5	7206	32.491325208006	0.206666666668
5	7425	32.799658541341	0.210000000002
5	7462	32.816594776184	0.106666666668
5	7506	32.844766486059	0.206666666668
5	7729	33.151433152727	0.310000000002
5	7741	33.218261442851	0.203333333334
5	7928	35.096494196659	0.311666666669
5	7997	35.296494196659	0.105000000001
5	8169	35.618440330329	0.101666666667
5	8207	35.625106996997	0.210000000002
5	8336	36.768220367973	0.103333333334
5	8431	36.973220367974	0.105000000001
5	8668	39.103723679951	0.311666666669
5	8685	39.199637977141	0.101666666667
5	8772	39.307057013285	0.210000000002
5	8797	39.40302686603	0.101666666667
5	8830	39.404693532697	0.103333333334
5	9069	40.855008743327	0.106666666668
5	9214	41.256675409994	0.203333333334
5	9333	41.771850218539	0.211666666669
5	9347	41.848299456394	0.101666666667
5	9439	42.051732789728	0.101766666667
5	9571	42.175183551873	0.310000000002
5	9609	42.258399456396	0.105000000001
5	9756	44.298328098104	0.105000000001
5	9869	44.603328098105	0.206666666668
5	10039	45.154030052162	0.311666666669
5	10056	45.249030052161	0.101666666667
5	10214	48.037445693899	0.105000000001
5	10304	48.244112360567	0.210000000002
5	10434	48.652757764495	0.203333333334
5	10468	48.662915014689	0.205000000001
5	10587	48.871248348024	0.210000000002
5	10698	48.993614237794	0.101666666667
5	10751	49.059579986717	0.203333333334
5	10796	49.067913320052	0.211666666669
5	10924	49.200280904462	0.206666666668
5	11250	49.966596672332	0.106666666668
5	11268	50.002758679716	0.203333333334
5	11288	50.009425346384	0.311666666669
5	11382	50.168263338999	0.105000000001
5	11555	50.818919034079	0.203333333334
5	11650	51.027252367414	0.310000000002
5	11726	51.164086769621	0.106666666668
5	11793	51.365753436288	0.105000000001
5	11982	53.650722459002	0.211666666669
5	12049	53.845722459001	0.101666666667
5	12324	55.530953048371	0.311666666669
5	12347	55.629286381704	0.206666666668
5	12386	55.855372231885	0.203333333334
5	12434	56.262150009663	0.203444444444
5	12666	56.675483342999	0.210000000002
5	12688	56.735070395193	0.101666666667
5	12823	57.040070395194	0.203333333334
5	13135	58.71376528123	0.203333333334
5	13306	58.991948000373	0.311666666669
5	13341	59.086948000372	0.101666666667
5	13607	59.727929908744	0.206666666668
5	13752	60.034596575412	0.310000000002
6	103	5.868905523658	0.203333333334
6	231	6.275572190326	0.406666666668
6	355	6.705531190881	0.101666666667
6	369	6.707197857548	0.205000000001
6	612	7.802607102685	0.305000000001
6	651	7.904273769352	0.203333333334
6	796	8.33345404373	0.306666666668
6	854	8.535120710397	0.203333333334
6	1071	9.773813683705	0.203333333334
6	1084	9.793973088729	0.101666666667
6	1123	9.854306026162	0.203333333334
6	1313	10.057639359496	0.305000000001
6	1391	10.180480350373	0.203333333334
6	1414	10.18214701704	0.205000000001
6	1442	10.200639755397	0.305000000001
6	1698	11.064403324979	0.306666666668
6	1768	11.367736658313	0.305000000001
6	2003	12.844865711706	0.101666666667
6	2017	12.846532378373	0.306666666668
6	2124	13.033227328538	0.205000000001
6	2180	13.234893995205	0.203333333334
6	2223	13.980348302717	0.203333333334
6	2458	14.387014969385	0.203333333334
6	2614	14.49589794791	0.305000000001
6	2669	14.511016179575	0.203333333334
6	2682	14.517682846243	0.311666666669
6	2800	14.699231281244	0.406666666668
6	2820	14.793681636053	0.203333333334
6	2878	15.102855642026	0.203333333334
6	3041	15.509566753138	0.203333333334
6	3064	15.511233419805	0.205000000001
6	3189	15.701470637189	0.306666666668
6	3294	15.903137303856	0.305000000001
6	3484	16.62487625986	0.305000000001
6	3516	16.726542926527	0.305000000001
6	3671	17.409615692076	0.306666666668
6	3743	17.611282358743	0.305000000001
6	3939	19.048532021195	0.306666666668
6	3997	19.250198687862	0.203333333334
6	4160	20.285134493568	0.205000000001
6	4235	20.433187952797	0.305000000001
6	4243	20.486801160235	0.203333333334
6	4272	20.702957246386	0.406666666668
6	4304	21.043387952797	0.305199999999
6	4528	21.653387952799	0.305000000001
6	4758	23.819515609774	0.306666666668
6	4826	24.021182276441	0.203333333334
6	4847	24.108135103879	0.203333333334
6	4934	24.514890659435	0.203333333334
6	4959	24.516557326102	0.205000000001
6	5128	25.24334406803	0.101666666667
6	5272	25.650010734698	0.305000000001
6	5387	25.947200484708	0.101666666667
6	5401	25.948867151375	0.205000000001
6	5635	26.951136224339	0.203333333334
6	5653	26.957802891007	0.311666666669
6	5791	28.583170182175	0.203333333334
6	5893	28.786503515509	0.203333333334
6	5964	28.998236848844	0.101666666667
6	6134	29.608236848846	0.406666666668
6	6137	29.649145932701	0.305000000001
6	6362	30.25941259937	0.305266666668
6	6395	30.287672174929	0.406666666668
6	6398	30.289338841596	0.306666666668
6	6616	30.869412599372	0.305000000001
6	6831	31.309670118976	0.306666666668
6	6859	31.314440295367	0.101666666667
6	7002	31.511336785643	0.305000000001
6	7007	31.517773628701	0.203333333334
6	7190	32.434633152725	0.203333333334
6	7203	32.489658541339	0.205000000001
6	7479	32.841433152725	0.203333333334
6	7502	32.843099819392	0.205000000001
6	7530	32.89465854134	0.305000000001
6	7693	33.116594776184	0.101666666667
6	7707	33.118261442851	0.408333333335
6	7776	33.971271974434	0.406666666668
6	7812	34.78482752999	0.406888888888
6	8155	35.598160863326	0.406666666668
6	8166	35.618440330329	0.203333333334
6	8237	35.821773663663	0.305000000001
6	8412	36.96988703464	0.305000000001
6	8447	37.071553701307	0.203333333334
6	8490	38.181723679947	0.305000000001
6	8521	38.792057013282	0.305333333334
6	8788	39.402057013284	0.305000000001
6	8918	39.606360199364	0.305000000001
6	8944	39.708026866031	0.305000000001
6	9176	41.155008743327	0.101666666667
6	9190	41.156675409994	0.408333333335
6	9205	41.254883551869	0.305000000001
6	9353	41.865183551871	0.305000000001
6	9375	41.866850218538	0.306666666668
6	9636	42.356732789729	0.203333333334
6	9649	42.363399456397	0.311666666669
6	9725	44.232063385491	0.305000000001
6	9799	44.398328098104	0.205000000001
6	9862	44.599994764771	0.203333333334
6	9897	44.842363385493	0.305300000001
6	10101	45.452363385495	0.305000000001
6	10239	48.135779027232	0.203333333334
6	10328	48.339112360566	0.305000000001
6	10401	48.559581681355	0.101666666667
6	10658	48.966248348023	0.305000000001
6	10878	49.162913320051	0.306666666668
6	10912	49.196947571128	0.305000000001
6	10916	49.198614237795	0.205000000001
6	10975	49.364579986718	0.305000000001
6	10992	49.49431423527	0.101666666667
6	11012	49.648157324841	0.203333333334
6	11024	49.697758679715	0.101777777778
6	11172	49.901092013049	0.101666666667
6	11405	50.266596672332	0.203333333334
6	11418	50.273263339	0.413333333336
6	11435	50.513785700745	0.101666666667
6	11490	50.717252367412	0.101666666667
6	11521	50.718919034079	0.103333333334
6	11734	51.260753436287	0.203333333334
6	11848	51.667420102955	0.406666666668
6	12021	53.745722459001	0.306666666668
6	12091	54.049055792335	0.305000000001
6	12108	54.812486381702	0.203333333334
6	12140	55.135686709611	0.305000000001
6	12146	55.219286381702	0.203466666666
6	12340	55.62595304837	0.203333333334
6	12587	56.568816676331	0.306666666668
6	12716	56.770483342998	0.305000000001
6	12785	56.938403728527	0.101666666667
6	12799	56.940070395194	0.306666666668
6	12920	58.06984800037	0.305000000001
6	13060	58.612098614563	0.101666666667
6	13096	58.680281333704	0.305433333333
6	13414	59.231798614561	0.406666666668
6	13426	59.290281333706	0.305000000001
6	13438	59.31759657541	0.203333333334
6	13579	59.72459657541	0.203333333334
6	13603	59.726263242077	0.205000000001
7	133	5.872238856992	0.206666666668
7	148	5.970572190325	0.101666666667
7	314	6.605531190881	0.103333333334
7	408	6.808864524215	0.205000000001
7	434	7.090918213794	0.203333333334
7	472	7.497607102684	0.203355555556
7	655	7.905940436019	0.205000000001
7	806	8.336787377064	0.310000000002
7	829	8.435120710397	0.103333333334
7	1126	9.854306026162	0.101666666667
7	1156	9.859306026163	0.208333333335
7	1198	9.897306422063	0.205000000001
7	1327	10.080480350373	0.103333333334
7	1448	10.203973088731	0.308333333335
7	1535	10.452703324977	0.305000000001
7	1545	10.487147017041	0.306666666668
7	1673	11.062736658312	0.305000000001
7	1708	11.067736658313	0.310000000002
7	2034	12.849865711707	0.310000000002
7	2087	12.94819904504	0.205000000001
7	2125	13.033227328538	0.205000000001
7	2155	13.134893995205	0.103333333334
7	2229	13.987553503464	0.101666666667
7	2263	14.190897947909	0.101677777778
7	2401	14.307682846241	0.101666666667
7	2491	14.394231281243	0.101666666667
7	2673	14.512682846242	0.205000000001
7	2768	14.693681636053	0.103333333334
7	2805	14.700348302721	0.313333333336
7	2975	15.409566753138	0.103333333334
7	3008	15.496470637188	0.101666666667
7	3281	15.816233419806	0.306666666668
7	3300	15.90647063719	0.308333333335
7	3316	16.116509593192	0.101666666667
7	3328	16.319876259859	0.1017
7	3436	16.523209593193	0.101666666667
7	3685	17.41294902541	0.310000000002
7	3749	17.614615692077	0.308333333335
7	3794	18.42863721467	0.101666666667
7	3949	19.051865354529	0.310000000002
7	3972	19.150198687862	0.103333333334
7	4101	20.183467826901	0.103333333334
7	4247	20.488467826902	0.205000000001
7	4439	21.351721286132	0.308333333335
7	4535	21.656721286133	0.308333333335
7	4768	23.822848943108	0.310000000002
7	4797	23.921182276441	0.103333333334
7	4960	24.516557326102	0.205000000001
7	5059	24.821557326103	0.306666666668
7	5078	24.938255179141	0.203333333334
7	5159	25.345010734697	0.203333333334
7	5193	25.348344068031	0.206666666668
7	5346	25.847200484708	0.103333333334
7	5440	26.050533818042	0.205000000001
7	5639	26.952802891006	0.205000000001
7	5654	26.957802891007	0.311666666669
7	5763	28.484836848842	0.105000000001
7	5858	28.686503515509	0.103333333334
7	6006	29.103236848845	0.206666666668
7	6049	29.303236848845	0.101666666667
7	6153	29.779283286039	0.101666666667
7	6204	29.982672174928	0.101666666667
7	6233	29.984338841595	0.103333333334
7	6514	30.567745932705	0.308333333335
7	6622	30.872745932706	0.308333333335
7	6821	31.308003452309	0.101666666667
7	6849	31.31300345231	0.310000000002
7	6962	31.417773628701	0.103333333334
7	6995	31.424440295369	0.211666666669
7	7157	32.387991874672	0.103333333334
7	7383	32.741433152725	0.103333333334
7	7442	32.811594776183	0.101666666667
7	7536	32.897991874674	0.308333333335
7	7726	33.148099819393	0.306666666668
7	7745	33.219928109518	0.205000000001
7	7925	35.093160863325	0.308333333335
7	7983	35.293160863325	0.101666666667
7	8014	35.313373663662	0.101666666667
7	8093	35.516773663662	0.101666666667
7	8131	35.520106996996	0.105000000001
7	8254	36.258042590193	0.203333333334
7	8278	36.599642164873	0.101666666667
7	8284	36.664887034639	0.203511111112
7	8451	37.073220367974	0.205000000001
7	8651	39.097971310474	0.101666666667
7	8663	39.100390346617	0.308333333335
7	8729	39.301360199363	0.101722222222
7	8834	39.405390346618	0.308333333335
7	8874	39.504693532697	0.101666666667
7	9049	40.850008743326	0.101666666667
7	9218	41.258342076661	0.205000000001
7	9383	41.870183551872	0.310000000002
7	9507	42.153399456395	0.101666666667
7	9568	42.171850218539	0.306666666668
7	9640	42.358399456396	0.205000000001
7	9800	44.398328098104	0.205000000001
7	9831	44.499994764771	0.103333333334
7	9854	44.537063385492	0.305000000001
7	10002	45.147363385494	0.305000000001
7	10033	45.150696718828	0.308333333335
7	10248	48.137445693899	0.205000000001
7	10334	48.3424456939	0.308333333335
7	10469	48.662915014689	0.205000000001
7	10486	48.688492015571	0.101666666667
7	10602	48.891947571127	0.101788888889
7	10671	48.969581681357	0.308333333335
7	10828	49.096947571128	0.103333333334
7	10868	49.161246653384	0.101666666667
7	10896	49.166246653385	0.310000000002
7	11230	49.961596672331	0.101666666667
7	11272	50.004425346383	0.205000000001
7	11287	50.009425346384	0.311666666669
7	11409	50.268263338999	0.205000000001
7	11564	50.820585700746	0.205000000001
7	11647	51.02391903408	0.306666666668
7	11764	51.264086769621	0.206666666668
7	11779	51.362420102954	0.101666666667
7	11877	53.133689125666	0.305000000001
7	11996	53.744055792334	0.305000000001
7	12031	53.749055792335	0.310000000002
7	12299	55.52595304837	0.103333333334
7	12329	55.532619715038	0.313333333336
7	12428	56.226470395192	0.203333333334
7	12481	56.36381667633	0.101666666667
7	12618	56.633403728526	0.2036
7	12722	56.773816676332	0.308333333335
7	12827	57.041737061861	0.205000000001
7	12978	58.374848000371	0.305000000001
7	13146	58.717098614564	0.206666666668
7	13269	58.985281333705	0.305000000001
7	13300	58.988614667039	0.308333333335
7	13534	59.62459657541	0.103333333334
7	13749	60.031263242078	0.306666666668
8	134	5.872238856992	0.206666666668
8	186	6.073905523659	0.205000000001
8	240	6.3669749668	0.101666666667
8	377	6.708864524215	0.105000000001
8	386	6.710531190882	0.208333333335
8	533	7.602607102685	0.105000000001
8	658	7.907607102686	0.206666666668
8	812	8.345120710399	0.318333333337
8	867	8.540120710398	0.208333333335
8	1102	9.797306422063	0.105000000001
8	1147	9.857639359496	0.206666666668
8	1226	9.957639359496	0.205000000001
8	1425	10.185480350374	0.208333333335
8	1451	10.212306422066	0.31666666667
8	1529	10.395480350376	0.215000000003
8	1712	11.076069991648	0.318333333337
8	1741	11.167736658313	0.105000000001
8	2025	12.84819904504	0.105000000001
8	2038	12.858199045042	0.318333333337
8	2132	13.036560661872	0.208333333335
8	2193	13.239893995206	0.208333333335
8	2257	14.183681636051	0.203333333334
8	2381	14.29589794791	0.105000000001
8	2563	14.411016179575	0.205000000001
8	2626	14.497564614577	0.205000000001
8	2676	14.514349512909	0.206666666668
8	2685	14.590348302719	0.203333333334
8	2745	14.603681636055	0.21666666667
8	3075	15.514566753139	0.208333333335
8	3117	15.599803970522	0.205000000001
8	3243	15.724566753141	0.215000000003
8	3303	15.914803970525	0.31666666667
8	3407	16.42487625986	0.105000000001
8	3492	16.626542926527	0.205000000001
8	3707	17.421282358745	0.318333333337
8	3752	17.622949025412	0.31666666667
8	3955	19.060198687864	0.318333333337
8	4010	19.255198687863	0.208333333335
8	4173	20.288467826902	0.208333333335
8	4250	20.490134493569	0.206666666668
8	4406	21.260054619467	0.21666666667
8	4538	21.665054619468	0.31666666667
8	4608	23.207815609772	0.305000000001
8	4735	23.817848943107	0.305000000001
8	4774	23.831182276443	0.318333333337
8	4965	24.519890659436	0.208333333335
8	5043	24.729890659438	0.215000000003
8	5152	25.248344068031	0.106666666668
8	5233	25.450010734698	0.105000000001
8	5242	25.540489373596	0.101666666667
8	5281	25.743867151374	0.101711111111
8	5409	25.950533818042	0.105000000001
8	5642	26.954469557673	0.206666666668
8	5657	26.964469557675	0.318333333337
8	5671	27.973014626619	0.203333333334
8	5709	28.379836848841	0.203488888888
8	5906	28.79150351551	0.208333333335
8	5988	29.003236848845	0.106666666668
8	6091	29.406570182179	0.205000000001
8	6301	30.087672174929	0.105000000001
8	6312	30.089338841596	0.208333333335
8	6477	30.47607926604	0.21666666667
8	6625	30.881079266041	0.31666666667
8	6693	31.111062517589	0.101666666667
8	6858	31.314440295367	0.101666666667
8	6909	31.319440295368	0.106666666668
8	6916	31.321336785645	0.318333333337
8	6936	31.411336785643	0.205000000001
8	7099	32.231299819391	0.203333333334
8	7212	32.492991874673	0.208333333335
8	7271	32.638099819391	0.203466666666
8	7539	32.906325208009	0.31666666667
8	7552	32.914928109517	0.205000000001
8	7681	33.056433152728	0.215000000003
8	7713	33.119928109518	0.105000000001
8	7911	35.00149419666	0.21666666667
8	8027	35.396494196659	0.205000000001
8	8189	35.621773663663	0.105000000001
8	8208	35.625106996997	0.210000000002
8	8344	36.76988703464	0.105000000001
8	8454	37.074887034641	0.206666666668
8	8624	39.008723679952	0.21666666667
8	8843	39.406360199364	0.105000000001
8	8857	39.413723679953	0.31666666667
8	8926	39.608026866031	0.205000000001
8	9039	40.760218560895	0.101666666667
8	9097	40.95334207666	0.205000000001
8	9196	41.158342076661	0.105000000001
8	9391	41.878516885207	0.318333333337
8	9495	42.080183551874	0.215000000003
8	9600	42.256732789729	0.205000000001
8	9643	42.360066123063	0.206666666668
8	9807	44.401661431438	0.208333333335
8	9875	44.604994764772	0.208333333335
8	9996	45.059030052163	0.21666666667
8	10074	45.252363385495	0.105000000001
8	10255	48.139112360566	0.206666666668
8	10341	48.350779027235	0.31666666667
8	10419	48.562915014689	0.105000000001
8	10683	48.977915014692	0.31666666667
8	10737	48.996947571128	0.105000000001
8	10904	49.17457998672	0.318333333337
8	10933	49.201947571129	0.208333333335
8	10953	49.264579986718	0.205000000001
8	11130	49.851490658175	0.203333333334
8	11189	49.904425346383	0.105000000001
8	11221	49.914425346385	0.21666666667
8	11325	50.064930005665	0.205000000001
8	11412	50.269930005666	0.206666666668
8	11530	50.720585700746	0.105000000001
8	11633	50.932252367415	0.215000000003
8	11765	51.264086769621	0.206666666668
8	11817	51.465753436288	0.205000000001
8	12035	53.75738912567	0.318333333337
8	12064	53.849055792335	0.105000000001
8	12126	55.015819715036	0.203333333334
8	12226	55.422619715036	0.203333333334
8	12279	55.435953048372	0.21666666667
8	12549	56.467150009664	0.205000000001
8	12711	56.740070395194	0.106666666668
8	12725	56.782150009667	0.31666666667
8	12807	56.941737061861	0.105000000001
8	13085	58.617098614564	0.106666666668
8	13246	58.896948000374	0.21666666667
8	13359	59.090281333706	0.105000000001
8	13614	59.729596575411	0.208333333335
8	13724	59.939596575413	0.215000000003
9	139	5.873905523659	0.208333333335
9	190	6.075572190326	0.206666666668
9	234	6.298864524213	0.101666666667
9	249	6.502197857547	0.101666666667
9	358	6.705531190881	0.101666666667
9	518	7.599273769351	0.101666666667
9	598	7.721754043728	0.305000000001
9	661	7.909273769353	0.208333333335
9	773	8.331787377063	0.305000000001
9	815	8.346787377066	0.320000000004
9	929	9.570480350371	0.203333333334
9	1086	9.793973088729	0.101666666667
9	1157	9.859306026163	0.208333333335
9	1229	9.959306026163	0.206666666668
9	1238	9.977147017039	0.203333333334
9	1454	10.213973088733	0.318333333337
9	1532	10.397147017043	0.21666666667
9	1715	11.077736658315	0.320000000004
9	1727	11.164403324979	0.101666666667
9	1856	12.624827328537	0.203333333334
9	2006	12.844865711706	0.101666666667
9	2041	12.859865711709	0.320000000004
9	2098	13.031560661871	0.203333333334
9	2137	13.038227328539	0.210000000002
9	2342	14.292564614576	0.101666666667
9	2573	14.412682846242	0.206666666668
9	2636	14.499231281244	0.206666666668
9	2679	14.516016179576	0.208333333335
9	2751	14.605348302722	0.218333333337
9	2836	14.798681636054	0.208333333335
9	2852	14.899522308692	0.203333333334
9	2898	15.306233419804	0.203377777778
9	3125	15.601470637189	0.206666666668
9	3246	15.726233419808	0.21666666667
9	3309	15.916470637192	0.318333333337
9	3370	16.421542926526	0.101666666667
9	3495	16.628209593194	0.206666666668
9	3711	17.422949025412	0.320000000004
9	3755	17.624615692079	0.318333333337
9	3784	18.326970548003	0.101666666667
9	3797	18.436698687861	0.305000000001
9	3916	19.046865354528	0.305000000001
9	3958	19.061865354531	0.320000000004
9	4033	19.673356715789	0.203333333334
9	4053	20.080134493567	0.203444444444
9	4253	20.491801160236	0.208333333335
9	4409	21.261721286134	0.218333333337
9	4541	21.666721286135	0.318333333337
9	4777	23.83284894311	0.320000000004
9	4839	24.026182276442	0.208333333335
9	4969	24.521557326103	0.210000000002
9	5046	24.731557326105	0.21666666667
9	5130	25.24334406803	0.101666666667
9	5216	25.446677401364	0.101666666667
9	5390	25.947200484708	0.101666666667
9	5418	25.952200484709	0.208333333335
9	5647	26.95613622434	0.208333333335
9	5660	26.966136224342	0.320000000004
9	5689	28.176347959953	0.203333333334
9	5790	28.583170182175	0.203333333334
9	5835	28.589836848843	0.210000000002
9	5966	28.998236848844	0.101666666667
9	6095	29.408236848846	0.206666666668
9	6282	30.084338841595	0.101666666667
9	6314	30.089338841596	0.208333333335
9	6480	30.477745932707	0.218333333337
9	6628	30.882745932708	0.318333333337
9	6861	31.314440295367	0.101666666667
9	6921	31.323003452312	0.320000000004
9	6939	31.41300345231	0.206666666668
9	7020	31.522773628702	0.208333333335
9	7041	31.674558541337	0.305000000001
9	7105	32.284658541338	0.3051
9	7513	32.846433152726	0.208333333335
9	7542	32.907991874676	0.318333333337
9	7559	32.916594776184	0.206666666668
9	7684	33.058099819395	0.21666666667
9	7696	33.116594776184	0.101666666667
9	7914	35.003160863327	0.218333333337
9	7974	35.211706996995	0.101666666667
9	8031	35.398160863326	0.206666666668
9	8045	35.415106996995	0.101733333333
9	8170	35.618440330329	0.101666666667
9	8317	36.70130883154	0.101666666667
9	8329	36.766553701306	0.101666666667
9	8457	37.076553701308	0.208333333335
9	8627	39.010390346619	0.218333333337
9	8800	39.40302686603	0.101666666667
9	8861	39.41539034662	0.318333333337
9	8929	39.609693532698	0.206666666668
9	9104	40.955008743327	0.206666666668
9	9179	41.155008743327	0.101666666667
9	9395	41.880183551874	0.320000000004
9	9498	42.081850218541	0.21666666667
9	9610	42.258399456396	0.206666666668
9	9646	42.36173278973	0.208333333335
9	9674	43.989772542547	0.203333333334
9	9773	44.396661431437	0.203333333334
9	9812	44.403328098105	0.210000000002
9	9999	45.06069671883	0.218333333337
9	10057	45.249030052161	0.101666666667
9	10262	48.140779027233	0.208333333335
9	10344	48.352445693902	0.318333333337
9	10403	48.559581681355	0.101666666667
9	10534	48.790158682238	0.101666666667
9	10686	48.979581681359	0.318333333337
9	10695	48.993614237794	0.101666666667
9	10726	48.995280904461	0.103333333334
9	10907	49.176246653387	0.320000000004
9	10956	49.266246653385	0.206666666668
9	11175	49.901092013049	0.101666666667
9	11224	49.916092013052	0.218333333337
9	11333	50.066596672332	0.206666666668
9	11415	50.271596672333	0.208333333335
9	11493	50.717252367412	0.101666666667
9	11636	50.933919034082	0.21666666667
9	11770	51.265753436288	0.208333333335
9	11821	51.467420102955	0.206666666668
9	12038	53.759055792337	0.320000000004
9	12050	53.845722459001	0.101666666667
9	12282	55.437619715039	0.218333333337
9	12353	55.630953048371	0.208333333335
9	12421	56.153824679488	0.203333333334
9	12557	56.468816676331	0.206666666668
9	12689	56.735070395193	0.101666666667
9	12728	56.783816676334	0.318333333337
9	12788	56.938403728527	0.101666666667
9	13062	58.612098614563	0.101666666667
9	13249	58.898614667041	0.218333333337
9	13342	59.086948000372	0.101666666667
9	13370	59.114263242076	0.203333333334
9	13476	59.521263242076	0.203666666666
9	13727	59.94126324208	0.21666666667

