file 70426325 1559738725                                        
version 2
run General-13-20190605-14:44:24-16036
attr configname General
attr datetime 20190605-14:44:24
attr experiment General
attr inifile omnetpp.ini
attr iterationvars ""
attr iterationvarsf ""
attr measurement ""
attr network networks.Net5
attr processid 16036
attr repetition 13
attr replication #13
attr resultdir results
attr runnumber 13
attr seedset 13
param **.appType "\"App\""
param **.app.packetLength "1500 bytes"
param **.app.totalNodes 3
param **.destAddresses "\"0\""
param **.sendIaTime "uniform(5s, 10s)"
param **.sendIaTimeEvil 10ms

vector 0 Net5.rte[0].app endToEndDelay:vector ETV
attr interpolationmode none
attr title "end-to-end delay of arrived packets, vector"
attr unit s
vector 1 Net5.rte[2].app endToEndDelay:vector ETV
attr interpolationmode none
attr title "end-to-end delay of arrived packets, vector"
attr unit s
vector 2 Net5.rte[1].app endToEndDelay:vector ETV
attr interpolationmode none
attr title "end-to-end delay of arrived packets, vector"
attr unit s
1	1032 1381585 13 1079430 6.391039413134 3437.151324624351 32768 0.101666666667 0.103333333334 3331.4183444535 338.69471615055
2	1382617 1397844 34 1079661 6.594372746468 3437.886876076793 32768 0.101666666667 0.103333333334 3331.4184000091 338.69472744895
1	2780461 1425508 1079492 2158518 3437.35854274346 6851.751324624351 32768 0.101666666667 0.101666666667 3331.4133333424 338.69368889117
2	4205969 1441772 1079723 2160069 3438.092991291018 6856.686876076793 32768 0.101666666667 0.101666666667 3331.4133333424 338.69368889117
1	5647741 1428077 2158580 3238447 6851.95854274346 10269.07854274346 32768 0.101666666667 0.101666666667 3331.4133333424 338.69368889117
2	7075818 1444369 2160131 3239685 6856.892991291018 10272.966876076793 32768 0.101666666667 0.101666666667 3331.4133333424 338.69368889117
2	8520187 1474525 3239747 4318774 10273.172991291018 13687.776876076793 32768 0.101666666667 0.101666666667 3331.4133333424 338.69368889117
1	9994712 1458257 3238451 4318869 10269.081324624351 13688.08854274346 32768 0.101666666667 0.101666666667 3331.4133333424 338.69368889117
1	11452969 1458271 4318873 5398129 13688.091324624351 17103.31854274346 32768 0.101666666667 0.101666666667 3331.4133333424 338.69368889117
2	12911240 1474532 4318836 5399024 13687.982991291018 17106.156876076793 32768 0.101666666667 0.101666666667 3331.4133333424 338.69368889117
1	14385772 1458262 5398133 6477638 17103.321324624351 20518.96854274346 32768 0.101666666667 0.101666666667 3331.4133333424 338.69368889117
2	15844034 1474532 5399086 6478991 17106.362991291018 20523.272991291018 32768 0.101666666667 0.101666666667 3331.4133333424 338.69368889117
1	17318566 1458271 6477642 7556792 20518.971324624351 23933.77854274346 32768 0.101666666667 0.101666666667 3331.4133333424 338.69368889117
2	18776837 1474537 6478995 7559359 20523.276876076793 23941.862991291018 32768 0.101666666667 0.101666666667 3331.4133333424 338.69368889117
1	20251374 1458270 7556796 8635976 23933.781324624351 27348.591324624351 32768 0.101666666667 0.101666666667 3331.4133333424 338.69368889117
2	21709644 1474536 7559363 8639595 23941.866876076793 27360.032991291018 32768 0.101666666667 0.101666666667 3331.4133333424 338.69368889117
1	23184180 1458261 8636038 9715970 27348.79854274346 30765.91854274346 32768 0.101666666667 0.101666666667 3331.4133333424 338.69368889117
2	24642441 1474528 8639599 9719118 27360.036876076793 30775.892991291018 32768 0.101666666667 0.101666666667 3331.4133333424 338.69368889117
1	26116969 1482414 9715974 10795415 30765.921324624351 34181.77854274346 32768 0.101666666667 0.101666666667 3331.4133333424 338.69368889117
2	27599383 1498783 9719122 10799170 30775.896876076793 34193.642991291018 32768 0.101666666667 0.101666666667 3331.4133333424 338.69368889117
1	29098166 1491040 10795419 11874992 34181.781324624351 37598.05854274346 32768 0.101666666667 0.101666666667 3331.4133333424 338.69368889117
2	30589206 1507302 10799174 11879143 34193.646876076793 37611.182991291018 32768 0.101666666667 0.101666666667 3331.4133333424 338.69368889117
1	32096508 1491047 11874996 12954806 37598.061324624351 41014.96854274346 32768 0.101666666667 0.101666666667 3331.4133333424 338.69368889117
2	33587555 1507302 11879147 12958759 37611.186876076793 41027.462991291018 32768 0.101666666667 0.101666666667 3331.4133333424 338.69368889117
1	35094857 1491033 12954810 14034519 41014.971324624351 44431.671324624351 32768 0.101666666667 0.101666666667 3331.4133333424 338.69368889117
2	36585890 1507303 12958763 14038534 41027.466876076793 44444.372991291018 32768 0.101666666667 0.101666666667 3331.4133333424 338.69368889117
1	38093193 1491022 14034581 15114730 44431.87854274346 47850.051324624351 32768 0.101666666667 0.101666666667 3331.4133333424 338.69368889117
2	39584215 1507305 14038538 15117887 44444.376876076793 47860.022991291018 32768 0.101666666667 0.101666666667 3331.4133333424 338.69368889117
1	41091520 1491042 15114792 16194069 47850.25854274346 51265.491324624351 32768 0.101666666667 0.101666666667 3331.4133333424 338.69368889117
2	42582562 1507303 15117891 16198009 47860.026876076793 51277.986876076793 32768 0.101666666667 0.101666666667 3331.4133333424 338.69368889117
1	44089865 1491029 16194131 17273831 51265.69854274346 54682.401324624351 32768 0.101666666667 0.101666666667 3331.4133333424 338.69368889117
2	45580894 1507300 16198071 17277780 51278.192991291018 54694.892991291018 32768 0.101666666667 0.101666666667 3331.4133333424 338.69368889117
1	47088194 1491027 17273893 18353779 54682.60854274346 58100.151324624351 32768 0.101666666667 0.101666666667 3331.4133333424 338.69368889117
2	48579221 1507295 17277784 18357389 54694.896876076793 58111.596876076793 32768 0.101666666667 0.101666666667 3331.4133333424 338.69368889117
1	50086516 1491040 18353841 19433022 58100.35854274346 61515.37854274346 32768 0.101666666667 0.101666666667 3331.4133333424 338.69368889117
2	51577556 1507309 18357451 19437767 58111.802991291018 61530.392991291018 32768 0.101666666667 0.101666666667 3331.4133333424 338.69368889117
1	53084865 1491029 19433026 20513178 61515.381324624351 64933.12854274346 32768 0.101666666667 0.101666666667 3331.4133333424 338.69368889117
2	54575894 1507305 19437771 20516990 61530.396876076793 64945.206876076793 32768 0.101666666667 0.101666666667 3331.4133333424 338.69368889117
1	56083199 1491036 20513182 21593045 64933.131324624351 68350.24854274346 32768 0.101666666667 0.101666666667 3331.4133333424 338.69368889117
2	57574235 1507305 20517052 21596655 64945.412991291018 68361.692991291018 32768 0.101666666667 0.101666666667 3331.4133333424 338.69368889117
1	59081540 1491027 21593049 22672383 68350.251324624351 71765.47854274346 32768 0.101666666667 0.101666666667 3331.4133333424 338.69368889117
2	60572567 1507304 21596659 22676736 68361.696876076793 71779.236876076793 32768 0.101666666667 0.101666666667 3331.4133333424 338.69368889117
1	62079871 1491012 22672387 23752702 71765.481324624351 75183.861324624351 32768 0.101666666667 0.101666666667 3331.4133333424 338.69368889117
2	63570883 1507296 22676798 23755916 71779.442991291018 75194.046876076793 32768 0.101666666667 0.101666666667 3331.4133333424 338.69368889117
1	65078179 1491034 23752764 24832526 75184.06854274346 78600.97854274346 32768 0.101666666667 0.101666666667 3331.4133333424 338.69368889117
2	66569213 1507305 23755978 24835612 75194.252991291018 78610.746876076793 32768 0.101666666667 0.101666666667 3331.4133333424 338.69368889117
0	68076518 487486 7 25504500 6.289372746467 80727.55264847466 10761 0.101666666667 0.103333333334 1094.0367777814 111.22725593107
1	68564004 928300 24832530 25504724 78600.981324624351 80728.281324624351 20401 0.101666666667 0.101666666667 2074.1016666727 210.86700277907
2	69492304 934019 24835674 25504757 78610.952991291018 80728.386876076793 20305 0.101666666667 0.101666666667 2064.3416666726 209.8747361124

