version 2
run General-7-20190529-16:32:54-11916
attr configname General
attr datetime 20190529-16:32:54
attr experiment General
attr inifile omnetpp.ini
attr iterationvars ""
attr iterationvarsf ""
attr measurement ""
attr network networks.Net5
attr processid 11916
attr repetition 7
attr replication #7
attr resultdir results
attr runnumber 7
attr seedset 7
param **.appType "\"App\""
param **.app.packetLength "1500 bytes"
param **.app.totalNodes 3
param **.destAddresses "\"0\""
param **.sendIaTime "uniform(5s, 10s)"
param **.sendIaTimeEvil 10ms

vector 0 Net5.rte[1].app endToEndDelay:vector ETV
attr interpolationmode none
attr title "end-to-end delay of arrived packets, vector"
attr unit s
vector 1 Net5.rte[0].app endToEndDelay:vector ETV
attr interpolationmode none
attr title "end-to-end delay of arrived packets, vector"
attr unit s
vector 2 Net5.rte[2].app endToEndDelay:vector ETV
attr interpolationmode none
attr title "end-to-end delay of arrived packets, vector"
attr unit s
0	7	5.48320812253	0.101666666667
0	19	5.686541455864	0.101666666667
0	48	5.889874789198	0.101666666667
0	62	6.340028708069	0.101666666667
0	82	6.543373152514	0.101666666667
0	92	6.545039819181	0.103333333334
0	132	9.306271756201	0.101666666667
0	147	9.407938422868	0.101666666667
0	188	13.436889761793	0.101666666667
0	194	13.480709703273	0.101666666667
0	208	13.58237636994	0.101666666667
0	243	18.650301258147	0.101666666667
0	258	18.751967924814	0.101666666667
0	271	19.503816530774	0.101666666667
0	291	19.70717208633	0.101666666667
0	301	19.708838752997	0.103333333334
0	341	21.842329375912	0.101666666667
0	355	21.943996042579	0.101666666667
0	395	27.993854903584	0.101666666667
0	407	28.001298041416	0.101666666667
0	415	28.095521570251	0.101666666667
0	425	28.204698041416	0.101733333333
0	443	28.40803137475	0.101666666667
0	476	33.376824950533	0.101666666667
0	516	33.580202728311	0.101666666667
0	520	33.581869394978	0.103333333334
0	553	33.786824950533	0.101666666667
1	13	5.584874789197	0.101666666667
1	33	5.788208122531	0.101666666667
1	43	5.789874789198	0.103333333334
1	83	6.543373152514	0.101666666667
1	97	6.645039819181	0.101666666667
1	105	9.001260645089	0.101666666667
1	117	9.204605089534	0.101677777778
1	146	9.407938422868	0.101666666667
1	164	13.277354147717	0.101666666667
1	170	13.335223095126	0.101666666667
1	193	13.480709703273	0.101666666667
1	203	13.48237636994	0.103333333334
1	216	18.345267924813	0.101666666667
1	228	18.54863459148	0.1017
1	257	18.751967924814	0.101666666667
1	265	19.402149864107	0.101666666667
1	277	19.605505419663	0.101688888889
1	306	19.808838752997	0.101666666667
1	320	21.638940487023	0.101666666667
1	340	21.842329375912	0.101666666667
1	350	21.843996042579	0.103333333334
1	370	27.790454903584	0.101666666667
1	394	27.993854903584	0.101666666667
1	404	27.995521570251	0.103333333334
1	442	28.40803137475	0.101666666667
1	460	33.275158283866	0.101666666667
1	492	33.478536061644	0.101711111111
2	34	5.788208122531	0.101666666667
2	49	5.889874789198	0.101666666667
2	56	6.238362041402	0.101666666667
2	68	6.441706485847	0.101677777778
2	98	6.645039819181	0.101666666667
2	111	9.102927311756	0.101666666667
2	131	9.306271756201	0.101666666667
2	141	9.307938422868	0.103333333334
2	154	13.17568748105	0.101666666667
2	176	13.379043036606	0.101688888889
2	209	13.58237636994	0.101666666667
2	222	18.44693459148	0.101666666667
2	242	18.650301258147	0.101666666667
2	252	18.651967924814	0.103333333334
2	292	19.70717208633	0.101666666667
2	307	19.808838752997	0.101666666667
2	314	21.537273820356	0.101666666667
2	326	21.740662709245	0.101722222222
2	356	21.943996042579	0.101666666667
2	364	27.688788236917	0.101666666667
2	376	27.892188236917	0.101733333333
2	416	28.095521570251	0.101666666667
2	419	28.102964708083	0.101666666667
2	431	28.306364708083	0.101666666667
2	517	33.580202728311	0.101666666667
2	537	33.685158283866	0.101666666667
2	569	33.888536061644	0.101711111111

