version 2
run General-49-20190529-16:33:12-21180
attr configname General
attr datetime 20190529-16:33:12
attr experiment General
attr inifile omnetpp.ini
attr iterationvars ""
attr iterationvarsf ""
attr measurement ""
attr network networks.Net5
attr processid 21180
attr repetition 49
attr replication #49
attr resultdir results
attr runnumber 49
attr seedset 49
param **.appType "\"App\""
param **.app.packetLength "1500 bytes"
param **.app.totalNodes 3
param **.destAddresses "\"0\""
param **.sendIaTime "uniform(5s, 10s)"
param **.sendIaTimeEvil 10ms

vector 0 Net5.rte[0].app endToEndDelay:vector ETV
attr interpolationmode none
attr title "end-to-end delay of arrived packets, vector"
attr unit s
vector 1 Net5.rte[2].app endToEndDelay:vector ETV
attr interpolationmode none
attr title "end-to-end delay of arrived packets, vector"
attr unit s
vector 2 Net5.rte[1].app endToEndDelay:vector ETV
attr interpolationmode none
attr title "end-to-end delay of arrived packets, vector"
attr unit s
0	7	6.336975807424	0.101666666667
0	20	6.540309140758	0.101666666667
0	49	6.743642474092	0.101666666667
0	84	7.775352471208	0.101666666667
0	98	7.877019137875	0.101666666667
0	133	12.955861790238	0.101666666667
0	147	13.057528456905	0.101666666667
0	161	15.521304208519	0.101666666667
0	185	15.724648652964	0.101666666667
0	195	15.726315319631	0.103333333334
0	231	16.100037435802	0.101666666667
0	245	16.201704102469	0.101666666667
0	253	18.702969856892	0.101666666667
0	265	18.906336523559	0.1017
0	294	19.109669856893	0.101666666667
0	302	22.473655223946	0.101666666667
0	314	22.677044112835	0.101722222222
0	343	22.880377446169	0.101666666667
0	357	25.002454682685	0.101666666667
0	381	25.205832460463	0.101666666667
0	391	25.20749912713	0.103333333334
0	404	25.301723877998	0.101666666667
0	442	25.505101655776	0.101711111111
1	13	6.438642474091	0.101666666667
1	34	6.641975807425	0.101666666667
1	44	6.643642474092	0.103333333334
1	57	7.470352471207	0.101666666667
1	69	7.673685804541	0.101666666667
1	99	7.877019137875	0.101666666667
1	106	12.650850679126	0.101666666667
1	118	12.854195123571	0.101677777778
1	148	13.057528456905	0.101666666667
1	155	15.419637541852	0.101666666667
1	167	15.622981986297	0.101677777778
1	207	15.826315319631	0.101666666667
1	210	15.896659658024	0.101666666667
1	230	16.100037435802	0.101666666667
1	240	16.101704102469	0.103333333334
1	280	19.008003190226	0.101666666667
1	295	19.109669856893	0.101666666667
1	308	22.575321890613	0.101666666667
1	328	22.778710779502	0.101666666667
1	338	22.780377446169	0.103333333334
1	351	24.900788016018	0.101666666667
1	363	25.104165793796	0.101711111111
1	413	25.30749912713	0.101666666667
1	467	25.606768322443	0.101666666667
1	487	25.711723877998	0.101666666667
1	519	25.915101655776	0.101711111111
2	35	6.641975807425	0.101666666667
2	50	6.743642474092	0.101666666667
2	63	7.572019137874	0.101666666667
2	83	7.775352471208	0.101666666667
2	93	7.777019137875	0.103333333334
2	112	12.752517345793	0.101666666667
2	132	12.955861790238	0.101666666667
2	142	12.957528456905	0.103333333334
2	186	15.724648652964	0.101666666667
2	198	15.794992991357	0.101666666667
2	206	15.826315319631	0.101666666667
2	216	15.998370769135	0.101711111111
2	246	16.201704102469	0.101666666667
2	259	18.804636523559	0.101666666667
2	279	19.008003190226	0.101666666667
2	289	19.009669856893	0.103333333334
2	329	22.778710779502	0.101666666667
2	344	22.880377446169	0.101666666667
2	382	25.205832460463	0.101666666667
2	412	25.30749912713	0.101666666667
2	426	25.403390544665	0.101666666667
2	466	25.606768322443	0.101666666667
2	470	25.60843498911	0.103333333334
2	503	25.813390544665	0.101666666667

