version 2
run General-1-20190517-16:43:39-17476
attr configname General
attr datetime 20190517-16:43:39
attr experiment General
attr inifile omnetpp.ini
attr iterationvars ""
attr iterationvarsf ""
attr measurement ""
attr network networks.Net5
attr processid 17476
attr repetition 1
attr replication #1
attr resultdir results
attr runnumber 1
attr seedset 1
param **.appType "\"App\""
param **.app.packetLength "4096 bytes"
param **.app.totalNodes 5
param **.destAddresses "\"0\""
param **.sendIaTime "uniform(5s, 10s)"
param **.sendIaTimeEvil "uniform(1ms, 10ms)"

vector 0 Net5.rte[2].app endToEndDelay:vector ETV
attr interpolationmode none
attr title "end-to-end delay of arrived packets, vector"
attr unit s
vector 1 Net5.rte[4].app endToEndDelay:vector ETV
attr interpolationmode none
attr title "end-to-end delay of arrived packets, vector"
attr unit s
vector 2 Net5.rte[1].app endToEndDelay:vector ETV
attr interpolationmode none
attr title "end-to-end delay of arrived packets, vector"
attr unit s
vector 3 Net5.rte[0].app endToEndDelay:vector ETV
attr interpolationmode none
attr title "end-to-end delay of arrived packets, vector"
attr unit s
vector 4 Net5.rte[3].app endToEndDelay:vector ETV
attr interpolationmode none
attr title "end-to-end delay of arrived packets, vector"
attr unit s
0	7	5.2545769864	0.117639006558
0	19	5.477242618107	0.117639006558
0	71	5.699908249814	0.117639006558
0	145	6.362882788999	0.085113213351
0	180	6.57668309008	0.192486645469
0	250	7.664312881801	0.085113213351
0	261	7.734741973456	0.230083035877
0	285	9.722641597105	0.159653944222
0	326	10.054696009166	0.159653944222
0	347	10.125125100821	0.230083035877
0	447	13.611921077168	0.204917902596
0	455	13.682350168823	0.212316737736
0	543	15.43861340557	0.247538938768
0	547	15.459896354717	0.117639006558
0	611	17.046539770345	0.117639006558
0	632	17.104618496348	0.085113213351
0	658	18.761269640207	0.117639006558
0	685	18.983935271914	0.117639006558
0	706	19.033049180599	0.166752915243
0	741	19.184560152727	0.159653944222
0	765	19.516614564788	0.159653944222
0	836	19.881501678096	0.192486645469
0	856	23.223559220275	0.085113213351
0	871	23.374646032502	0.085113213351
0	914	23.525732844729	0.085113213351
0	983	25.144727684633	0.085113213351
0	1011	25.340499601466	0.204917902596
0	1027	25.823963865667	0.117639006558
0	1054	26.046629497374	0.117639006558
0	1072	26.095743406059	0.166752915243
0	1166	28.896681852728	0.085113213351
0	1184	28.981923925072	0.247538938768
0	1195	29.128865590111	0.159653944222
0	1215	29.460920002172	0.159653944222
0	1328	29.80755999148	0.085113213351
0	1349	29.877989083135	0.244668613124
0	1356	29.914085012971	0.117639006558
0	1421	30.8967177484	0.117639006558
0	1472	31.150568391236	0.204917902596
0	1496	33.557349561084	0.159653944222
0	1537	33.889403973145	0.159653944222
0	1558	33.9598330648	0.230083035877
0	1623	35.804483744323	0.085113213351
0	1658	36.018284045404	0.192486645469
0	1759	38.304852185305	0.225319346716
0	1772	38.345711804302	0.117639006558
0	1783	38.41896578519	0.162296866424
0	1810	38.723203478078	0.162296866424
0	1888	39.070062207138	0.204917902596
0	1905	39.254966228152	0.162296866424
0	1942	39.55920392104	0.162296866424
0	1967	39.644445993384	0.247538938768
0	2073	43.518562710963	0.247538938768
0	2077	43.53984566011	0.117639006558
0	2154	44.145646133366	0.117639006558
0	2175	44.203724859369	0.085113213351
0	2226	44.638090417446	0.117639006558
0	2277	44.90996944453	0.192486645469
0	2336	48.56621922765	0.117639006558
0	2359	48.615333136335	0.132254022104
0	2399	48.820069870486	0.204917902596
0	2402	48.837998768042	0.117639006558
0	2457	49.060664399749	0.117639006558
1	13	5.359603611549	0.105026625149
1	38	5.582269243256	0.105026625149
1	56	5.645370608445	0.168127990338
1	139	6.351768803932	0.073999228284
1	183	6.59840180626	0.214205361649
1	244	7.653198896734	0.073999228284
1	264	7.751697000475	0.247038062896
1	350	10.14208012784	0.247038062896
1	354	10.159722634315	0.105026625149
1	450	13.643428128273	0.236424953701
1	458	13.684238792736	0.214205361649
1	479	15.024502720004	0.151182881357
1	517	15.342257348159	0.151182881357
1	554	15.470120456675	0.279045989873
1	571	16.764297016293	0.073999228284
1	583	16.928900763787	0.073999228284
1	626	17.093504511281	0.073999228284
1	652	18.643630633649	0.105026625149
1	664	18.866296265356	0.105026625149
1	720	19.088961897063	0.105026625149
1	784	19.621641189937	0.105026625149
1	839	19.903220394276	0.214205361649
1	861	23.229622297754	0.073999228284
1	899	23.479672657651	0.105026625149
1	908	23.514618859662	0.073999228284
1	969	25.133613699566	0.073999228284
1	1014	25.372006652571	0.236424953701
1	1021	25.706324859109	0.105026625149
1	1033	25.928990490816	0.105026625149
1	1085	26.151656122523	0.105026625149
1	1160	28.885567867661	0.073999228284
1	1188	29.013430976177	0.279045989873
1	1243	29.565946627321	0.105026625149
1	1253	29.631842258919	0.073999228284
1	1317	29.796446006413	0.073999228284
1	1339	29.830762455506	0.108315677377
1	1345	29.865078904599	0.231758434588
1	1381	30.461324113687	0.151182881357
1	1401	30.779078741842	0.151182881357
1	1475	31.182075442341	0.236424953701
1	1561	33.976788091819	0.247038062896
1	1565	33.994430598294	0.105026625149
1	1617	35.793369759256	0.073999228284
1	1661	36.040002761584	0.214205361649
1	1682	37.882501450416	0.148539959155
1	1714	38.163572778089	0.073999228284
1	1733	38.228072797744	0.148539959155
1	1765	38.326570901485	0.247038062896
1	1831	38.828230103227	0.105026625149
1	1897	39.101569258243	0.236424953701
1	1971	39.664230546189	0.105026625149
1	1975	39.675953044489	0.279045989873
1	2010	43.104452025397	0.151182881357
1	2047	43.422206653552	0.151182881357
1	2084	43.550069762068	0.279045989873
1	2101	43.863403379314	0.073999228284
1	2120	44.028007126808	0.073999228284
1	2136	44.084402949483	0.148539959155
1	2169	44.192610874302	0.073999228284
1	2206	44.520451410888	0.148539959155
1	2280	44.93168816071	0.214205361649
1	2291	48.130825592937	0.151182881357
1	2312	48.448580221092	0.151182881357
1	2381	48.720359761484	0.105026625149
1	2415	48.851576921591	0.236424953701
1	2424	48.943025393191	0.105026625149
1	2442	49.00612675838	0.168127990338
2	50	5.599946879691	0.122704261584
2	75	5.709591996654	0.127322753398
2	96	6.096801975814	0.074540730871
2	117	6.277769575648	0.074540730871
2	164	6.458737175482	0.074540730871
2	196	7.398232068616	0.074540730871
2	217	7.57919966845	0.074540730871
2	233	7.612032369697	0.107373432118
2	318	10.002415497062	0.107373432118
2	358	10.17740027075	0.122704261584
2	415	13.484186827645	0.077183653073
2	428	13.544574161958	0.074540730871
2	513	15.310879156047	0.119804689245
2	551	15.469580101557	0.127322753398
2	577	16.854901535503	0.09060451921
2	599	17.019505282997	0.09060451921
2	623	17.092941751373	0.164040987586
2	697	18.993619018754	0.127322753398
2	730	19.106639533498	0.122704261584
2	804	19.69604948908	0.179434924292
2	816	19.763555763498	0.074540730871
2	849	23.15562306947	0.09060451921
2	865	23.289532819151	0.065973598876
2	886	23.440619631378	0.065973598876
2	922	23.554080956794	0.179434924292
2	940	24.906463590621	0.077183653073
2	952	25.059614471282	0.077183653073
2	998	25.212765351943	0.077183653073
2	1066	26.056313244214	0.127322753398
2	1092	26.169333758958	0.122704261584
2	1116	28.658417758716	0.077183653073
2	1140	28.811568639377	0.077183653073
2	1154	28.854189675549	0.119804689245
2	1237	29.557843030635	0.09060451921
2	1269	29.640354926464	0.179434924292
2	1282	29.707861200882	0.074540730871
2	1289	29.722446778129	0.09060451921
2	1360	29.923768759811	0.127322753398
2	1430	30.943119729428	0.164040987586
2	1455	31.022834141713	0.077183653073
2	1529	33.837123461041	0.107373432118
2	1569	34.012108234729	0.122704261584
2	1587	35.538402931138	0.074540730871
2	1599	35.719370530972	0.074540730871
2	1642	35.900338130806	0.074540730871
2	1724	38.186906270707	0.107373432118
2	1747	38.254177297299	0.09060451921
2	1776	38.355395551142	0.127322753398
2	1853	38.90263840237	0.179434924292
2	1860	38.942327957615	0.077183653073
2	1937	39.516711743861	0.119804689245
2	1978	39.681908182624	0.122704261584
2	2043	43.39082846144	0.119804689245
2	2081	43.54952940695	0.127322753398
2	2110	43.954007898524	0.09060451921
2	2142	44.118611646018	0.09060451921
2	2166	44.192048114394	0.164040987586
2	2235	44.684492398474	0.164040987586
2	2258	44.792023529932	0.074540730871
2	2345	48.612621208678	0.164040987586
2	2376	48.692335620963	0.077183653073
2	2436	48.960703029626	0.122704261584
2	2461	49.070348146589	0.127322753398
3	60	5.649643085946	0.172400467839
3	85	5.779300631429	0.197031388173
3	106	6.203228844777	0.106426868963
3	111	6.21091635674	0.063030256515
3	148	6.384196444611	0.106426868963
3	160	6.41858806789	0.140818492242
3	190	7.323691337745	0.106426868963
3	202	7.504658937579	0.106426868963
3	256	7.685626537413	0.106426868963
3	275	9.562987652883	0.172400467839
3	295	9.895042064944	0.172400467839
3	362	10.227096477005	0.172400467839
3	382	13.322893763257	0.063030256515
3	403	13.470033431087	0.063030256515
3	419	13.502823454153	0.095820279581
3	505	15.254104723317	0.063030256515
3	560	15.539288736332	0.197031388173
3	635	17.12593215196	0.106426868963
3	641	17.162650386148	0.233749622361
3	715	19.063327653529	0.197031388173
3	734	19.156335739753	0.172400467839
3	755	19.356960620566	0.172400467839
3	793	19.689015032627	0.172400467839
3	809	19.745745695335	0.229131130547
3	919	23.547046500341	0.106426868963
3	926	23.603777163049	0.229131130547
3	986	25.166041340245	0.106426868963
3	995	25.198611955385	0.063030256515
3	1080	26.126021878989	0.197031388173
3	1096	26.219029965213	0.172400467839
3	1137	28.797415242819	0.063030256515
3	1173	28.91799550834	0.106426868963
3	1205	29.30126605795	0.172400467839
3	1258	29.633320470011	0.172400467839
3	1275	29.690051132719	0.229131130547
3	1333	29.828873647092	0.106426868963
3	1366	29.993477394586	0.197031388173
3	1449	31.008680745155	0.063030256515
3	1452	31.012828364203	0.233749622361
3	1486	33.397695616862	0.172400467839
3	1506	33.729750028923	0.172400467839
3	1573	34.061804440984	0.172400467839
3	1593	35.644829800101	0.106426868963
3	1626	35.825797399935	0.106426868963
3	1638	35.860189023214	0.140818492242
3	1672	37.733961491261	0.197031388173
3	1692	38.079532838589	0.197031388173
3	1788	38.425104185917	0.197031388173
3	1857	38.928174561057	0.063030256515
3	1865	38.952334608625	0.229131130547
3	1930	39.459937311131	0.063030256515
3	1982	39.731604388879	0.172400467839
3	2035	43.33405402871	0.063030256515
3	2090	43.619238041725	0.197031388173
3	2179	44.225038514981	0.106426868963
3	2185	44.261756749169	0.233749622361
3	2196	44.371911451733	0.28750850225
3	2238	44.717482799061	0.197031388173
3	2253	44.754201033249	0.233749622361
3	2369	48.678182224405	0.063030256515
3	2373	48.682329843453	0.233749622361
3	2446	49.010399235881	0.172400467839
3	2471	49.140056781364	0.197031388173
4	79	5.732644769987	0.25540215188
4	89	5.82227745843	0.240008215174
4	131	6.295025768055	0.084109411315
4	142	6.353736803236	0.075967227588
4	168	6.468305855926	0.084109411315
4	229	7.588768348894	0.084109411315
4	247	7.655166896038	0.075967227588
4	314	9.979151476259	0.084109411315
4	369	10.310098161046	0.25540215188
4	376	13.259863506742	0.084109411315
4	388	13.407003174572	0.084109411315
4	432	13.554142842402	0.084109411315
4	469	14.873319838647	0.166571746798
4	490	15.191074466802	0.166571746798
4	564	15.582265563333	0.240008215174
4	629	17.095472510585	0.075967227588
4	645	17.205627213149	0.276726449362
4	727	19.10630448053	0.240008215174
4	747	19.239337423794	0.25540215188
4	820	19.773124443942	0.084109411315
4	828	19.828747379376	0.312132814588
4	911	23.516586858966	0.075967227588
4	933	23.68677884709	0.312132814588
4	946	24.982430818209	0.075967227588
4	972	25.13558169887	0.075967227588
4	992	25.192914767932	0.13330029665
4	1089	26.16899870599	0.240008215174
4	1103	26.302031649254	0.25540215188
4	1110	28.581234105643	0.075967227588
4	1122	28.734384986304	0.075967227588
4	1163	28.887535866965	0.075967227588
4	1286	29.717429881326	0.084109411315
4	1309	29.77305281676	0.312132814588
4	1336	29.830385885822	0.107939107693
4	1370	30.036454221587	0.240008215174
4	1391	30.627895860485	0.166571746798
4	1433	30.94565048864	0.166571746798
4	1460	31.055805191204	0.276726449362
4	1525	33.813859440238	0.084109411315
4	1580	34.144806125025	0.25540215188
4	1620	35.79533775856	0.075967227588
4	1646	35.90990681125	0.084109411315
4	1720	38.163642249904	0.084109411315
4	1792	38.468081012918	0.240008215174
4	1800	38.560906611654	0.141940826464
4	1839	38.865144304542	0.141940826464
4	1883	39.035336292666	0.312132814588
4	1892	39.092669361728	0.355702060499
4	1915	39.396907054616	0.141940826464
4	1989	39.81460607292	0.25540215188
4	2000	42.95326914404	0.166571746798
4	2020	43.271023772195	0.166571746798
4	2094	43.662214868726	0.240008215174
4	2172	44.194578873606	0.075967227588
4	2193	44.30473357617	0.276726449362
4	2261	44.79717786025	0.276726449362
4	2265	44.801592210376	0.084109411315
4	2302	48.297397339735	0.166571746798
4	2348	48.61515196789	0.166571746798
4	2386	48.725306670454	0.276726449362
4	2465	49.093400919922	0.25540215188
4	2475	49.183033608365	0.240008215174
0	2554	50.947363290054	0.085113213351
0	2607	51.098450102281	0.085113213351
0	2697	51.353918420576	0.117639006558
1	2536	50.89070806669	0.148539959155
1	2646	51.20347672743	0.105026625149
1	2654	51.236279414018	0.148539959155
2	2527	50.858293476729	0.074540730871
2	2575	51.01333688893	0.065973598876
2	2639	51.164423701157	0.065973598876
2	2675	51.277885026573	0.179434924292
2	2681	51.318224976894	0.077183653073
2	2720	51.400320401604	0.164040987586
2	2750	51.471375857555	0.077183653073
3	2503	50.783752745858	0.106426868963
3	2601	51.087739454863	0.197031388173
3	2690	51.327581232828	0.229131130547
3	2725	51.433310802191	0.197031388173
3	2743	51.457222460997	0.063030256515
3	2747	51.470029036379	0.233749622361
4	2667	51.241041323821	0.075967227588
4	2706	51.394192204482	0.075967227588
4	2740	51.451525273544	0.353075171263

