version 2
run General-0-20190524-16:56:16-18924
attr configname General
attr datetime 20190524-16:56:16
attr experiment General
attr inifile omnetpp.ini
attr iterationvars ""
attr iterationvarsf ""
attr measurement ""
attr network networks.Net5
attr processid 18924
attr repetition 0
attr replication #0
attr resultdir results
attr runnumber 0
attr seedset 0
param **.appType "\"App\""
param **.app.packetLength "1500 bytes"
param **.app.totalNodes 50
param **.destAddresses "\"0\""
param **.sendIaTime "uniform(5s, 10s)"
param **.sendIaTimeEvil "uniform(1ms, 10ms)"

scalar Net5.rte[0].app hopCount:mean 2.6458333333333
attr interpolationmode none
attr title "hop count of arrived packets, mean"
scalar Net5.rte[0].app hopCount:max 5
attr interpolationmode none
attr title "hop count of arrived packets, max"
scalar Net5.rte[0].app endToEndDelay:mean 0.15026475106981
attr interpolationmode none
attr title "end-to-end delay of arrived packets, mean"
attr unit s
scalar Net5.rte[0].app endToEndDelay:max 0.348430090983
attr interpolationmode none
attr title "end-to-end delay of arrived packets, max"
attr unit s
statistic Net5.rte[0].routing outputIf:histogram
field count 222
field mean 1.1036036036036
field stddev 1.4899620650477
field min -1
field max 3
field sum 245
field sqrsum 761
attr interpolationmode none
attr title "output interface for each routed packet, histogram"
bin	-inf	0
bin	-2	0
bin	-1	48
bin	0	36
bin	1	38
bin	2	45
bin	3	55
bin	4	0
scalar Net5.rte[0].routing drop:count 0
attr interpolationmode none
attr title "dropped packet byte length, count"
attr unit bytes
scalar Net5.rte[0].routing drop:sum 0
attr interpolationmode none
attr title "dropped packet byte length, sum"
attr unit bytes
scalar Net5.rte[0].queue[0] rxBytes:count 50
attr interpolationmode none
attr title "received packet byte length, count"
attr unit bytes
scalar Net5.rte[0].queue[0] rxBytes:sum 75000
attr interpolationmode none
attr title "received packet byte length, sum"
attr unit bytes
statistic Net5.rte[0].queue[0] rxBytes:histogram
field count 50
field mean 1500
field stddev 0
field min 1500
field max 1500
field sum 75000
field sqrsum 112500000
attr interpolationmode none
attr title "received packet byte length, histogram"
attr unit bytes
bin	-inf	0
bin	1499	0
bin	1500	50
bin	1501	0
scalar Net5.rte[0].queue[0] txBytes:count 36
attr interpolationmode none
attr title "transmitting packet byte length, count"
attr unit bytes
scalar Net5.rte[0].queue[0] txBytes:sum 54000
attr interpolationmode none
attr title "transmitting packet byte length, sum"
attr unit bytes
statistic Net5.rte[0].queue[0] txBytes:histogram
field count 36
field mean 1500
field stddev 0
field min 1500
field max 1500
field sum 54000
field sqrsum 81000000
attr interpolationmode none
attr title "transmitting packet byte length, histogram"
attr unit bytes
bin	-inf	0
bin	1499	0
bin	1500	36
bin	1501	0
scalar Net5.rte[0].queue[0] busy:timeavg 0.00082880404764299
attr interpolationmode sample-hold
attr title "server busy state, timeavg"
scalar Net5.rte[0].queue[0] qlen:timeavg 0
attr interpolationmode sample-hold
attr title "queue length, timeavg"
scalar Net5.rte[0].queue[0] qlen:max 0
attr interpolationmode sample-hold
attr title "queue length, max"
scalar Net5.rte[0].queue[0] drop:count 0
attr interpolationmode none
attr title "dropped packet byte length, count"
attr unit bytes
scalar Net5.rte[0].queue[0] drop:sum 0
attr interpolationmode none
attr title "dropped packet byte length, sum"
attr unit bytes
scalar Net5.rte[0].queue[1] rxBytes:count 30
attr interpolationmode none
attr title "received packet byte length, count"
attr unit bytes
scalar Net5.rte[0].queue[1] rxBytes:sum 45000
attr interpolationmode none
attr title "received packet byte length, sum"
attr unit bytes
statistic Net5.rte[0].queue[1] rxBytes:histogram
field count 30
field mean 1500
field stddev 0
field min 1500
field max 1500
field sum 45000
field sqrsum 67500000
attr interpolationmode none
attr title "received packet byte length, histogram"
attr unit bytes
bin	-inf	0
bin	1499	0
bin	1500	30
bin	1501	0
scalar Net5.rte[0].queue[1] txBytes:count 38
attr interpolationmode none
attr title "transmitting packet byte length, count"
attr unit bytes
scalar Net5.rte[0].queue[1] txBytes:sum 57000
attr interpolationmode none
attr title "transmitting packet byte length, sum"
attr unit bytes
statistic Net5.rte[0].queue[1] txBytes:histogram
field count 38
field mean 1500
field stddev 0
field min 1500
field max 1500
field sum 57000
field sqrsum 85500000
attr interpolationmode none
attr title "transmitting packet byte length, histogram"
attr unit bytes
bin	-inf	0
bin	1499	0
bin	1500	38
bin	1501	0
scalar Net5.rte[0].queue[1] busy:timeavg 0.00087484871695649
attr interpolationmode sample-hold
attr title "server busy state, timeavg"
scalar Net5.rte[0].queue[1] qlen:timeavg 0
attr interpolationmode sample-hold
attr title "queue length, timeavg"
scalar Net5.rte[0].queue[1] qlen:max 0
attr interpolationmode sample-hold
attr title "queue length, max"
scalar Net5.rte[0].queue[1] drop:count 0
attr interpolationmode none
attr title "dropped packet byte length, count"
attr unit bytes
scalar Net5.rte[0].queue[1] drop:sum 0
attr interpolationmode none
attr title "dropped packet byte length, sum"
attr unit bytes
scalar Net5.rte[0].queue[2] rxBytes:count 82
attr interpolationmode none
attr title "received packet byte length, count"
attr unit bytes
scalar Net5.rte[0].queue[2] rxBytes:sum 123000
attr interpolationmode none
attr title "received packet byte length, sum"
attr unit bytes
statistic Net5.rte[0].queue[2] rxBytes:histogram
field count 82
field mean 1500
field stddev 0
field min 1500
field max 1500
field sum 123000
field sqrsum 184500000
attr interpolationmode none
attr title "received packet byte length, histogram"
attr unit bytes
bin	-inf	0
bin	1499	0
bin	1500	82
bin	1501	0
scalar Net5.rte[0].queue[2] txBytes:count 45
attr interpolationmode none
attr title "transmitting packet byte length, count"
attr unit bytes
scalar Net5.rte[0].queue[2] txBytes:sum 67500
attr interpolationmode none
attr title "transmitting packet byte length, sum"
attr unit bytes
statistic Net5.rte[0].queue[2] txBytes:histogram
field count 45
field mean 1500
field stddev 0
field min 1500
field max 1500
field sum 67500
field sqrsum 101250000
attr interpolationmode none
attr title "transmitting packet byte length, histogram"
attr unit bytes
bin	-inf	0
bin	1499	0
bin	1500	45
bin	1501	0
scalar Net5.rte[0].queue[2] busy:timeavg 0.0010360050595537
attr interpolationmode sample-hold
attr title "server busy state, timeavg"
scalar Net5.rte[0].queue[2] qlen:timeavg 0
attr interpolationmode sample-hold
attr title "queue length, timeavg"
scalar Net5.rte[0].queue[2] qlen:max 0
attr interpolationmode sample-hold
attr title "queue length, max"
scalar Net5.rte[0].queue[2] drop:count 0
attr interpolationmode none
attr title "dropped packet byte length, count"
attr unit bytes
scalar Net5.rte[0].queue[2] drop:sum 0
attr interpolationmode none
attr title "dropped packet byte length, sum"
attr unit bytes
scalar Net5.rte[0].queue[3] rxBytes:count 60
attr interpolationmode none
attr title "received packet byte length, count"
attr unit bytes
scalar Net5.rte[0].queue[3] rxBytes:sum 90000
attr interpolationmode none
attr title "received packet byte length, sum"
attr unit bytes
statistic Net5.rte[0].queue[3] rxBytes:histogram
field count 60
field mean 1500
field stddev 0
field min 1500
field max 1500
field sum 90000
field sqrsum 135000000
attr interpolationmode none
attr title "received packet byte length, histogram"
attr unit bytes
bin	-inf	0
bin	1499	0
bin	1500	60
bin	1501	0
scalar Net5.rte[0].queue[3] txBytes:count 55
attr interpolationmode none
attr title "transmitting packet byte length, count"
attr unit bytes
scalar Net5.rte[0].queue[3] txBytes:sum 82500
attr interpolationmode none
attr title "transmitting packet byte length, sum"
attr unit bytes
statistic Net5.rte[0].queue[3] txBytes:histogram
field count 55
field mean 1500
field stddev 0
field min 1500
field max 1500
field sum 82500
field sqrsum 123750000
attr interpolationmode none
attr title "transmitting packet byte length, histogram"
attr unit bytes
bin	-inf	0
bin	1499	0
bin	1500	55
bin	1501	0
scalar Net5.rte[0].queue[3] busy:timeavg 0.0012662284061212
attr interpolationmode sample-hold
attr title "server busy state, timeavg"
scalar Net5.rte[0].queue[3] qlen:timeavg 0
attr interpolationmode sample-hold
attr title "queue length, timeavg"
scalar Net5.rte[0].queue[3] qlen:max 0
attr interpolationmode sample-hold
attr title "queue length, max"
scalar Net5.rte[0].queue[3] drop:count 0
attr interpolationmode none
attr title "dropped packet byte length, count"
attr unit bytes
scalar Net5.rte[0].queue[3] drop:sum 0
attr interpolationmode none
attr title "dropped packet byte length, sum"
attr unit bytes
scalar Net5.rte[1].app hopCount:mean 3.4716981132075
attr interpolationmode none
attr title "hop count of arrived packets, mean"
scalar Net5.rte[1].app hopCount:max 5
attr interpolationmode none
attr title "hop count of arrived packets, max"
scalar Net5.rte[1].app endToEndDelay:mean 0.13546131521349
attr interpolationmode none
attr title "end-to-end delay of arrived packets, mean"
attr unit s
scalar Net5.rte[1].app endToEndDelay:max 0.235613589244
attr interpolationmode none
attr title "end-to-end delay of arrived packets, max"
attr unit s
statistic Net5.rte[1].routing outputIf:histogram
field count 205
field mean 0.78536585365854
field stddev 1.4561500703086
field min -1
field max 3
field sum 161
field sqrsum 559
attr interpolationmode none
attr title "output interface for each routed packet, histogram"
bin	-inf	0
bin	-2	0
bin	-1	53
bin	0	49
bin	1	27
bin	2	41
bin	3	35
bin	4	0
scalar Net5.rte[1].routing drop:count 0
attr interpolationmode none
attr title "dropped packet byte length, count"
attr unit bytes
scalar Net5.rte[1].routing drop:sum 0
attr interpolationmode none
attr title "dropped packet byte length, sum"
attr unit bytes
scalar Net5.rte[1].queue[0] rxBytes:count 51
attr interpolationmode none
attr title "received packet byte length, count"
attr unit bytes
scalar Net5.rte[1].queue[0] rxBytes:sum 76500
attr interpolationmode none
attr title "received packet byte length, sum"
attr unit bytes
statistic Net5.rte[1].queue[0] rxBytes:histogram
field count 51
field mean 1500
field stddev 0
field min 1500
field max 1500
field sum 76500
field sqrsum 114750000
attr interpolationmode none
attr title "received packet byte length, histogram"
attr unit bytes
bin	-inf	0
bin	1499	0
bin	1500	51
bin	1501	0
scalar Net5.rte[1].queue[0] txBytes:count 49
attr interpolationmode none
attr title "transmitting packet byte length, count"
attr unit bytes
scalar Net5.rte[1].queue[0] txBytes:sum 73500
attr interpolationmode none
attr title "transmitting packet byte length, sum"
attr unit bytes
statistic Net5.rte[1].queue[0] txBytes:histogram
field count 49
field mean 1500
field stddev 0
field min 1500
field max 1500
field sum 73500
field sqrsum 110250000
attr interpolationmode none
attr title "transmitting packet byte length, histogram"
attr unit bytes
bin	-inf	0
bin	1499	0
bin	1500	49
bin	1501	0
scalar Net5.rte[1].queue[0] busy:timeavg 0.0011280943981807
attr interpolationmode sample-hold
attr title "server busy state, timeavg"
scalar Net5.rte[1].queue[0] qlen:timeavg 0
attr interpolationmode sample-hold
attr title "queue length, timeavg"
scalar Net5.rte[1].queue[0] qlen:max 0
attr interpolationmode sample-hold
attr title "queue length, max"
scalar Net5.rte[1].queue[0] drop:count 0
attr interpolationmode none
attr title "dropped packet byte length, count"
attr unit bytes
scalar Net5.rte[1].queue[0] drop:sum 0
attr interpolationmode none
attr title "dropped packet byte length, sum"
attr unit bytes
scalar Net5.rte[1].queue[1] rxBytes:count 16
attr interpolationmode none
attr title "received packet byte length, count"
attr unit bytes
scalar Net5.rte[1].queue[1] rxBytes:sum 24000
attr interpolationmode none
attr title "received packet byte length, sum"
attr unit bytes
statistic Net5.rte[1].queue[1] rxBytes:histogram
field count 16
field mean 1500
field stddev 0
field min 1500
field max 1500
field sum 24000
field sqrsum 36000000
attr interpolationmode none
attr title "received packet byte length, histogram"
attr unit bytes
bin	-inf	0
bin	1499	0
bin	1500	16
bin	1501	0
scalar Net5.rte[1].queue[1] txBytes:count 27
attr interpolationmode none
attr title "transmitting packet byte length, count"
attr unit bytes
scalar Net5.rte[1].queue[1] txBytes:sum 40500
attr interpolationmode none
attr title "transmitting packet byte length, sum"
attr unit bytes
statistic Net5.rte[1].queue[1] txBytes:histogram
field count 27
field mean 1500
field stddev 0
field min 1500
field max 1500
field sum 40500
field sqrsum 60750000
attr interpolationmode none
attr title "transmitting packet byte length, histogram"
attr unit bytes
bin	-inf	0
bin	1499	0
bin	1500	27
bin	1501	0
scalar Net5.rte[1].queue[1] busy:timeavg 0.00062160303573224
attr interpolationmode sample-hold
attr title "server busy state, timeavg"
scalar Net5.rte[1].queue[1] qlen:timeavg 0
attr interpolationmode sample-hold
attr title "queue length, timeavg"
scalar Net5.rte[1].queue[1] qlen:max 0
attr interpolationmode sample-hold
attr title "queue length, max"
scalar Net5.rte[1].queue[1] drop:count 0
attr interpolationmode none
attr title "dropped packet byte length, count"
attr unit bytes
scalar Net5.rte[1].queue[1] drop:sum 0
attr interpolationmode none
attr title "dropped packet byte length, sum"
attr unit bytes
scalar Net5.rte[1].queue[2] rxBytes:count 57
attr interpolationmode none
attr title "received packet byte length, count"
attr unit bytes
scalar Net5.rte[1].queue[2] rxBytes:sum 85500
attr interpolationmode none
attr title "received packet byte length, sum"
attr unit bytes
statistic Net5.rte[1].queue[2] rxBytes:histogram
field count 57
field mean 1500
field stddev 0
field min 1500
field max 1500
field sum 85500
field sqrsum 128250000
attr interpolationmode none
attr title "received packet byte length, histogram"
attr unit bytes
bin	-inf	0
bin	1499	0
bin	1500	57
bin	1501	0
scalar Net5.rte[1].queue[2] txBytes:count 41
attr interpolationmode none
attr title "transmitting packet byte length, count"
attr unit bytes
scalar Net5.rte[1].queue[2] txBytes:sum 61500
attr interpolationmode none
attr title "transmitting packet byte length, sum"
attr unit bytes
statistic Net5.rte[1].queue[2] txBytes:histogram
field count 41
field mean 1500
field stddev 0
field min 1500
field max 1500
field sum 61500
field sqrsum 92250000
attr interpolationmode none
attr title "transmitting packet byte length, histogram"
attr unit bytes
bin	-inf	0
bin	1499	0
bin	1500	41
bin	1501	0
scalar Net5.rte[1].queue[2] busy:timeavg 0.00094391572092674
attr interpolationmode sample-hold
attr title "server busy state, timeavg"
scalar Net5.rte[1].queue[2] qlen:timeavg 0
attr interpolationmode sample-hold
attr title "queue length, timeavg"
scalar Net5.rte[1].queue[2] qlen:max 0
attr interpolationmode sample-hold
attr title "queue length, max"
scalar Net5.rte[1].queue[2] drop:count 0
attr interpolationmode none
attr title "dropped packet byte length, count"
attr unit bytes
scalar Net5.rte[1].queue[2] drop:sum 0
attr interpolationmode none
attr title "dropped packet byte length, sum"
attr unit bytes
scalar Net5.rte[1].queue[3] rxBytes:count 75
attr interpolationmode none
attr title "received packet byte length, count"
attr unit bytes
scalar Net5.rte[1].queue[3] rxBytes:sum 112500
attr interpolationmode none
attr title "received packet byte length, sum"
attr unit bytes
statistic Net5.rte[1].queue[3] rxBytes:histogram
field count 75
field mean 1500
field stddev 0
field min 1500
field max 1500
field sum 112500
field sqrsum 168750000
attr interpolationmode none
attr title "received packet byte length, histogram"
attr unit bytes
bin	-inf	0
bin	1499	0
bin	1500	75
bin	1501	0
scalar Net5.rte[1].queue[3] txBytes:count 35
attr interpolationmode none
attr title "transmitting packet byte length, count"
attr unit bytes
scalar Net5.rte[1].queue[3] txBytes:sum 52500
attr interpolationmode none
attr title "transmitting packet byte length, sum"
attr unit bytes
statistic Net5.rte[1].queue[3] txBytes:histogram
field count 35
field mean 1500
field stddev 0
field min 1500
field max 1500
field sum 52500
field sqrsum 78750000
attr interpolationmode none
attr title "transmitting packet byte length, histogram"
attr unit bytes
bin	-inf	0
bin	1499	0
bin	1500	35
bin	1501	0
scalar Net5.rte[1].queue[3] busy:timeavg 0.00080578171298624
attr interpolationmode sample-hold
attr title "server busy state, timeavg"
scalar Net5.rte[1].queue[3] qlen:timeavg 0
attr interpolationmode sample-hold
attr title "queue length, timeavg"
scalar Net5.rte[1].queue[3] qlen:max 0
attr interpolationmode sample-hold
attr title "queue length, max"
scalar Net5.rte[1].queue[3] drop:count 0
attr interpolationmode none
attr title "dropped packet byte length, count"
attr unit bytes
scalar Net5.rte[1].queue[3] drop:sum 0
attr interpolationmode none
attr title "dropped packet byte length, sum"
attr unit bytes
scalar Net5.rte[2].app hopCount:mean 2.4901960784314
attr interpolationmode none
attr title "hop count of arrived packets, mean"
scalar Net5.rte[2].app hopCount:max 4
attr interpolationmode none
attr title "hop count of arrived packets, max"
scalar Net5.rte[2].app endToEndDelay:mean 0.12512450370824
attr interpolationmode none
attr title "end-to-end delay of arrived packets, mean"
attr unit s
scalar Net5.rte[2].app endToEndDelay:max 0.304578371878
attr interpolationmode none
attr title "end-to-end delay of arrived packets, max"
attr unit s
statistic Net5.rte[2].routing outputIf:histogram
field count 437
field mean 1.7116704805492
field stddev 1.5648595802329
field min -1
field max 4
field sum 748
field sqrsum 2348
attr interpolationmode none
attr title "output interface for each routed packet, histogram"
bin	-inf	0
bin	-3	0
bin	-2	0
bin	-1	51
bin	0	49
bin	1	96
bin	2	86
bin	3	89
bin	4	66
bin	5	0
bin	6	0
scalar Net5.rte[2].routing drop:count 0
attr interpolationmode none
attr title "dropped packet byte length, count"
attr unit bytes
scalar Net5.rte[2].routing drop:sum 0
attr interpolationmode none
attr title "dropped packet byte length, sum"
attr unit bytes
scalar Net5.rte[2].queue[0] rxBytes:count 66
attr interpolationmode none
attr title "received packet byte length, count"
attr unit bytes
scalar Net5.rte[2].queue[0] rxBytes:sum 99010
attr interpolationmode none
attr title "received packet byte length, sum"
attr unit bytes
statistic Net5.rte[2].queue[0] rxBytes:histogram
field count 66
field mean 1500.1515151515
field stddev 1.2309149098836
field min 1500
field max 1510
field sum 99010
field sqrsum 148530100
attr interpolationmode none
attr title "received packet byte length, histogram"
attr unit bytes
bin	-inf	0
bin	1497	0
bin	1498	0
bin	1499	0
bin	1500	65
bin	1501	0
bin	1502	0
bin	1503	0
bin	1504	0
bin	1505	0
bin	1506	0
bin	1507	0
bin	1508	0
bin	1509	0
bin	1510	1
bin	1511	0
bin	1512	0
bin	1513	0
scalar Net5.rte[2].queue[0] txBytes:count 49
attr interpolationmode none
attr title "transmitting packet byte length, count"
attr unit bytes
scalar Net5.rte[2].queue[0] txBytes:sum 73500
attr interpolationmode none
attr title "transmitting packet byte length, sum"
attr unit bytes
statistic Net5.rte[2].queue[0] txBytes:histogram
field count 49
field mean 1500
field stddev 0
field min 1500
field max 1500
field sum 73500
field sqrsum 110250000
attr interpolationmode none
attr title "transmitting packet byte length, histogram"
attr unit bytes
bin	-inf	0
bin	1499	0
bin	1500	49
bin	1501	0
scalar Net5.rte[2].queue[0] busy:timeavg 0.0011280943981807
attr interpolationmode sample-hold
attr title "server busy state, timeavg"
scalar Net5.rte[2].queue[0] qlen:timeavg 0.0001381340079405
attr interpolationmode sample-hold
attr title "queue length, timeavg"
scalar Net5.rte[2].queue[0] qlen:max 2
attr interpolationmode sample-hold
attr title "queue length, max"
scalar Net5.rte[2].queue[0] drop:count 0
attr interpolationmode none
attr title "dropped packet byte length, count"
attr unit bytes
scalar Net5.rte[2].queue[0] drop:sum 0
attr interpolationmode none
attr title "dropped packet byte length, sum"
attr unit bytes
scalar Net5.rte[2].queue[1] rxBytes:count 119
attr interpolationmode none
attr title "received packet byte length, count"
attr unit bytes
scalar Net5.rte[2].queue[1] rxBytes:sum 178500
attr interpolationmode none
attr title "received packet byte length, sum"
attr unit bytes
statistic Net5.rte[2].queue[1] rxBytes:histogram
field count 119
field mean 1500
field stddev 0
field min 1500
field max 1500
field sum 178500
field sqrsum 267750000
attr interpolationmode none
attr title "received packet byte length, histogram"
attr unit bytes
bin	-inf	0
bin	1499	0
bin	1500	119
bin	1501	0
scalar Net5.rte[2].queue[1] txBytes:count 96
attr interpolationmode none
attr title "transmitting packet byte length, count"
attr unit bytes
scalar Net5.rte[2].queue[1] txBytes:sum 144010
attr interpolationmode none
attr title "transmitting packet byte length, sum"
attr unit bytes
statistic Net5.rte[2].queue[1] txBytes:histogram
field count 96
field mean 1500.1041666667
field stddev 1.0206207262109
field min 1500
field max 1510
field sum 144010
field sqrsum 216030100
attr interpolationmode none
attr title "transmitting packet byte length, histogram"
attr unit bytes
bin	-inf	0
bin	1499	0
bin	1500	95
bin	1501	0
bin	1502	0
bin	1503	0
bin	1504	0
bin	1505	0
bin	1506	0
bin	1507	0
bin	1508	0
bin	1509	0
bin	1510	1
bin	1511	0
scalar Net5.rte[2].queue[1] busy:timeavg 0.0022102976093383
attr interpolationmode sample-hold
attr title "server busy state, timeavg"
scalar Net5.rte[2].queue[1] qlen:timeavg 0.0062620750266359
attr interpolationmode sample-hold
attr title "queue length, timeavg"
scalar Net5.rte[2].queue[1] qlen:max 16
attr interpolationmode sample-hold
attr title "queue length, max"
scalar Net5.rte[2].queue[1] drop:count 0
attr interpolationmode none
attr title "dropped packet byte length, count"
attr unit bytes
scalar Net5.rte[2].queue[1] drop:sum 0
attr interpolationmode none
attr title "dropped packet byte length, sum"
attr unit bytes
scalar Net5.rte[2].queue[2] rxBytes:count 23
attr interpolationmode none
attr title "received packet byte length, count"
attr unit bytes
scalar Net5.rte[2].queue[2] rxBytes:sum 34510
attr interpolationmode none
attr title "received packet byte length, sum"
attr unit bytes
statistic Net5.rte[2].queue[2] rxBytes:histogram
field count 23
field mean 1500.4347826087
field stddev 2.0851441405813
field min 1500
field max 1510
field sum 34510
field sqrsum 51780100
attr interpolationmode none
attr title "received packet byte length, histogram"
attr unit bytes
bin	-inf	0
bin	1497	0
bin	1498	0
bin	1499	0
bin	1500	22
bin	1501	0
bin	1502	0
bin	1503	0
bin	1504	0
bin	1505	0
bin	1506	0
bin	1507	0
bin	1508	0
bin	1509	0
bin	1510	1
bin	1511	0
bin	1512	0
bin	1513	0
scalar Net5.rte[2].queue[2] txBytes:count 86
attr interpolationmode none
attr title "transmitting packet byte length, count"
attr unit bytes
scalar Net5.rte[2].queue[2] txBytes:sum 129000
attr interpolationmode none
attr title "transmitting packet byte length, sum"
attr unit bytes
statistic Net5.rte[2].queue[2] txBytes:histogram
field count 86
field mean 1500
field stddev 0
field min 1500
field max 1500
field sum 129000
field sqrsum 193500000
attr interpolationmode none
attr title "transmitting packet byte length, histogram"
attr unit bytes
bin	-inf	0
bin	1499	0
bin	1500	86
bin	1501	0
scalar Net5.rte[2].queue[2] busy:timeavg 0.0019799207804805
attr interpolationmode sample-hold
attr title "server busy state, timeavg"
scalar Net5.rte[2].queue[2] qlen:timeavg 0.004512377592723
attr interpolationmode sample-hold
attr title "queue length, timeavg"
scalar Net5.rte[2].queue[2] qlen:max 14
attr interpolationmode sample-hold
attr title "queue length, max"
scalar Net5.rte[2].queue[2] drop:count 0
attr interpolationmode none
attr title "dropped packet byte length, count"
attr unit bytes
scalar Net5.rte[2].queue[2] drop:sum 0
attr interpolationmode none
attr title "dropped packet byte length, sum"
attr unit bytes
scalar Net5.rte[2].queue[3] rxBytes:count 44
attr interpolationmode none
attr title "received packet byte length, count"
attr unit bytes
scalar Net5.rte[2].queue[3] rxBytes:sum 66000
attr interpolationmode none
attr title "received packet byte length, sum"
attr unit bytes
statistic Net5.rte[2].queue[3] rxBytes:histogram
field count 44
field mean 1500
field stddev 0
field min 1500
field max 1500
field sum 66000
field sqrsum 99000000
attr interpolationmode none
attr title "received packet byte length, histogram"
attr unit bytes
bin	-inf	0
bin	1499	0
bin	1500	44
bin	1501	0
scalar Net5.rte[2].queue[3] txBytes:count 89
attr interpolationmode none
attr title "transmitting packet byte length, count"
attr unit bytes
scalar Net5.rte[2].queue[3] txBytes:sum 133500
attr interpolationmode none
attr title "transmitting packet byte length, sum"
attr unit bytes
statistic Net5.rte[2].queue[3] txBytes:histogram
field count 89
field mean 1500
field stddev 0
field min 1500
field max 1500
field sum 133500
field sqrsum 200250000
attr interpolationmode none
attr title "transmitting packet byte length, histogram"
attr unit bytes
bin	-inf	0
bin	1499	0
bin	1500	89
bin	1501	0
scalar Net5.rte[2].queue[3] busy:timeavg 0.0020489877844507
attr interpolationmode sample-hold
attr title "server busy state, timeavg"
scalar Net5.rte[2].queue[3] qlen:timeavg 0.0001381340079405
attr interpolationmode sample-hold
attr title "queue length, timeavg"
scalar Net5.rte[2].queue[3] qlen:max 2
attr interpolationmode sample-hold
attr title "queue length, max"
scalar Net5.rte[2].queue[3] drop:count 0
attr interpolationmode none
attr title "dropped packet byte length, count"
attr unit bytes
scalar Net5.rte[2].queue[3] drop:sum 0
attr interpolationmode none
attr title "dropped packet byte length, sum"
attr unit bytes
scalar Net5.rte[2].queue[4] rxBytes:count 83
attr interpolationmode none
attr title "received packet byte length, count"
attr unit bytes
scalar Net5.rte[2].queue[4] rxBytes:sum 124500
attr interpolationmode none
attr title "received packet byte length, sum"
attr unit bytes
statistic Net5.rte[2].queue[4] rxBytes:histogram
field count 83
field mean 1500
field stddev 0
field min 1500
field max 1500
field sum 124500
field sqrsum 186750000
attr interpolationmode none
attr title "received packet byte length, histogram"
attr unit bytes
bin	-inf	0
bin	1499	0
bin	1500	83
bin	1501	0
scalar Net5.rte[2].queue[4] txBytes:count 66
attr interpolationmode none
attr title "transmitting packet byte length, count"
attr unit bytes
scalar Net5.rte[2].queue[4] txBytes:sum 99010
attr interpolationmode none
attr title "transmitting packet byte length, sum"
attr unit bytes
statistic Net5.rte[2].queue[4] txBytes:histogram
field count 66
field mean 1500.1515151515
field stddev 1.2309149098836
field min 1500
field max 1510
field sum 99010
field sqrsum 148530100
attr interpolationmode none
attr title "transmitting packet byte length, histogram"
attr unit bytes
bin	-inf	0
bin	1497	0
bin	1498	0
bin	1499	0
bin	1500	65
bin	1501	0
bin	1502	0
bin	1503	0
bin	1504	0
bin	1505	0
bin	1506	0
bin	1507	0
bin	1508	0
bin	1509	0
bin	1510	1
bin	1511	0
bin	1512	0
bin	1513	0
scalar Net5.rte[2].queue[4] busy:timeavg 0.0015196275696358
attr interpolationmode sample-hold
attr title "server busy state, timeavg"
scalar Net5.rte[2].queue[4] qlen:timeavg 0.003038948174691
attr interpolationmode sample-hold
attr title "queue length, timeavg"
scalar Net5.rte[2].queue[4] qlen:max 11
attr interpolationmode sample-hold
attr title "queue length, max"
scalar Net5.rte[2].queue[4] drop:count 0
attr interpolationmode none
attr title "dropped packet byte length, count"
attr unit bytes
scalar Net5.rte[2].queue[4] drop:sum 0
attr interpolationmode none
attr title "dropped packet byte length, sum"
attr unit bytes
scalar Net5.rte[3].app hopCount:mean 3.8163265306122
attr interpolationmode none
attr title "hop count of arrived packets, mean"
scalar Net5.rte[3].app hopCount:max 5
attr interpolationmode none
attr title "hop count of arrived packets, max"
scalar Net5.rte[3].app endToEndDelay:mean 0.21417001987104
attr interpolationmode none
attr title "end-to-end delay of arrived packets, mean"
attr unit s
scalar Net5.rte[3].app endToEndDelay:max 0.342966458161
attr interpolationmode none
attr title "end-to-end delay of arrived packets, max"
attr unit s
statistic Net5.rte[3].routing outputIf:histogram
field count 69
field mean -0.47826086956522
field stddev 0.85075564426009
field min -1
field max 1
field sum -33
field sqrsum 65
attr interpolationmode none
attr title "output interface for each routed packet, histogram"
bin	-inf	0
bin	-2	0
bin	-1	49
bin	0	4
bin	1	16
bin	2	0
scalar Net5.rte[3].routing drop:count 0
attr interpolationmode none
attr title "dropped packet byte length, count"
attr unit bytes
scalar Net5.rte[3].routing drop:sum 0
attr interpolationmode none
attr title "dropped packet byte length, sum"
attr unit bytes
scalar Net5.rte[3].queue[0] rxBytes:count 45
attr interpolationmode none
attr title "received packet byte length, count"
attr unit bytes
scalar Net5.rte[3].queue[0] rxBytes:sum 67500
attr interpolationmode none
attr title "received packet byte length, sum"
attr unit bytes
statistic Net5.rte[3].queue[0] rxBytes:histogram
field count 45
field mean 1500
field stddev 0
field min 1500
field max 1500
field sum 67500
field sqrsum 101250000
attr interpolationmode none
attr title "received packet byte length, histogram"
attr unit bytes
bin	-inf	0
bin	1499	0
bin	1500	45
bin	1501	0
scalar Net5.rte[3].queue[0] txBytes:count 4
attr interpolationmode none
attr title "transmitting packet byte length, count"
attr unit bytes
scalar Net5.rte[3].queue[0] txBytes:sum 6000
attr interpolationmode none
attr title "transmitting packet byte length, sum"
attr unit bytes
statistic Net5.rte[3].queue[0] txBytes:histogram
field count 4
field mean 1500
field stddev 0
field min 1500
field max 1500
field sum 6000
field sqrsum 9000000
attr interpolationmode none
attr title "transmitting packet byte length, histogram"
attr unit bytes
bin	-inf	0
bin	1499	0
bin	1500	4
bin	1501	0
scalar Net5.rte[3].queue[0] busy:timeavg 9.2089338626999e-005
attr interpolationmode sample-hold
attr title "server busy state, timeavg"
scalar Net5.rte[3].queue[0] qlen:timeavg 0
attr interpolationmode sample-hold
attr title "queue length, timeavg"
scalar Net5.rte[3].queue[0] qlen:max 0
attr interpolationmode sample-hold
attr title "queue length, max"
scalar Net5.rte[3].queue[0] drop:count 0
attr interpolationmode none
attr title "dropped packet byte length, count"
attr unit bytes
scalar Net5.rte[3].queue[0] drop:sum 0
attr interpolationmode none
attr title "dropped packet byte length, sum"
attr unit bytes
scalar Net5.rte[3].queue[1] rxBytes:count 23
attr interpolationmode none
attr title "received packet byte length, count"
attr unit bytes
scalar Net5.rte[3].queue[1] rxBytes:sum 34500
attr interpolationmode none
attr title "received packet byte length, sum"
attr unit bytes
statistic Net5.rte[3].queue[1] rxBytes:histogram
field count 23
field mean 1500
field stddev 0
field min 1500
field max 1500
field sum 34500
field sqrsum 51750000
attr interpolationmode none
attr title "received packet byte length, histogram"
attr unit bytes
bin	-inf	0
bin	1499	0
bin	1500	23
bin	1501	0
scalar Net5.rte[3].queue[1] txBytes:count 16
attr interpolationmode none
attr title "transmitting packet byte length, count"
attr unit bytes
scalar Net5.rte[3].queue[1] txBytes:sum 24000
attr interpolationmode none
attr title "transmitting packet byte length, sum"
attr unit bytes
statistic Net5.rte[3].queue[1] txBytes:histogram
field count 16
field mean 1500
field stddev 0
field min 1500
field max 1500
field sum 24000
field sqrsum 36000000
attr interpolationmode none
attr title "transmitting packet byte length, histogram"
attr unit bytes
bin	-inf	0
bin	1499	0
bin	1500	16
bin	1501	0
scalar Net5.rte[3].queue[1] busy:timeavg 0.000368357354508
attr interpolationmode sample-hold
attr title "server busy state, timeavg"
scalar Net5.rte[3].queue[1] qlen:timeavg 0
attr interpolationmode sample-hold
attr title "queue length, timeavg"
scalar Net5.rte[3].queue[1] qlen:max 0
attr interpolationmode sample-hold
attr title "queue length, max"
scalar Net5.rte[3].queue[1] drop:count 0
attr interpolationmode none
attr title "dropped packet byte length, count"
attr unit bytes
scalar Net5.rte[3].queue[1] drop:sum 0
attr interpolationmode none
attr title "dropped packet byte length, sum"
attr unit bytes
scalar Net5.rte[4].app hopCount:mean 2.96
attr interpolationmode none
attr title "hop count of arrived packets, mean"
scalar Net5.rte[4].app hopCount:max 5
attr interpolationmode none
attr title "hop count of arrived packets, max"
scalar Net5.rte[4].app endToEndDelay:mean 0.18619811579032
attr interpolationmode none
attr title "end-to-end delay of arrived packets, mean"
attr unit s
scalar Net5.rte[4].app endToEndDelay:max 0.343755203909
attr interpolationmode none
attr title "end-to-end delay of arrived packets, max"
attr unit s
statistic Net5.rte[4].routing outputIf:histogram
field count 121
field mean -0.19834710743802
field stddev 0.83286488210617
field min -1
field max 2
field sum -24
field sqrsum 88
attr interpolationmode none
attr title "output interface for each routed packet, histogram"
bin	-inf	0
bin	-2	0
bin	-1	50
bin	0	51
bin	1	14
bin	2	6
bin	3	0
scalar Net5.rte[4].routing drop:count 0
attr interpolationmode none
attr title "dropped packet byte length, count"
attr unit bytes
scalar Net5.rte[4].routing drop:sum 0
attr interpolationmode none
attr title "dropped packet byte length, sum"
attr unit bytes
scalar Net5.rte[4].queue[0] rxBytes:count 20
attr interpolationmode none
attr title "received packet byte length, count"
attr unit bytes
scalar Net5.rte[4].queue[0] rxBytes:sum 30000
attr interpolationmode none
attr title "received packet byte length, sum"
attr unit bytes
statistic Net5.rte[4].queue[0] rxBytes:histogram
field count 20
field mean 1500
field stddev 0
field min 1500
field max 1500
field sum 30000
field sqrsum 45000000
attr interpolationmode none
attr title "received packet byte length, histogram"
attr unit bytes
bin	-inf	0
bin	1499	0
bin	1500	20
bin	1501	0
scalar Net5.rte[4].queue[0] txBytes:count 51
attr interpolationmode none
attr title "transmitting packet byte length, count"
attr unit bytes
scalar Net5.rte[4].queue[0] txBytes:sum 76500
attr interpolationmode none
attr title "transmitting packet byte length, sum"
attr unit bytes
statistic Net5.rte[4].queue[0] txBytes:histogram
field count 51
field mean 1500
field stddev 0
field min 1500
field max 1500
field sum 76500
field sqrsum 114750000
attr interpolationmode none
attr title "transmitting packet byte length, histogram"
attr unit bytes
bin	-inf	0
bin	1499	0
bin	1500	51
bin	1501	0
scalar Net5.rte[4].queue[0] busy:timeavg 0.0011741390674942
attr interpolationmode sample-hold
attr title "server busy state, timeavg"
scalar Net5.rte[4].queue[0] qlen:timeavg 0
attr interpolationmode sample-hold
attr title "queue length, timeavg"
scalar Net5.rte[4].queue[0] qlen:max 0
attr interpolationmode sample-hold
attr title "queue length, max"
scalar Net5.rte[4].queue[0] drop:count 0
attr interpolationmode none
attr title "dropped packet byte length, count"
attr unit bytes
scalar Net5.rte[4].queue[0] drop:sum 0
attr interpolationmode none
attr title "dropped packet byte length, sum"
attr unit bytes
scalar Net5.rte[4].queue[1] rxBytes:count 41
attr interpolationmode none
attr title "received packet byte length, count"
attr unit bytes
scalar Net5.rte[4].queue[1] rxBytes:sum 61500
attr interpolationmode none
attr title "received packet byte length, sum"
attr unit bytes
statistic Net5.rte[4].queue[1] rxBytes:histogram
field count 41
field mean 1500
field stddev 0
field min 1500
field max 1500
field sum 61500
field sqrsum 92250000
attr interpolationmode none
attr title "received packet byte length, histogram"
attr unit bytes
bin	-inf	0
bin	1499	0
bin	1500	41
bin	1501	0
scalar Net5.rte[4].queue[1] txBytes:count 14
attr interpolationmode none
attr title "transmitting packet byte length, count"
attr unit bytes
scalar Net5.rte[4].queue[1] txBytes:sum 21000
attr interpolationmode none
attr title "transmitting packet byte length, sum"
attr unit bytes
statistic Net5.rte[4].queue[1] txBytes:histogram
field count 14
field mean 1500
field stddev 0
field min 1500
field max 1500
field sum 21000
field sqrsum 31500000
attr interpolationmode none
attr title "transmitting packet byte length, histogram"
attr unit bytes
bin	-inf	0
bin	1499	0
bin	1500	14
bin	1501	0
scalar Net5.rte[4].queue[1] busy:timeavg 0.0003223126851945
attr interpolationmode sample-hold
attr title "server busy state, timeavg"
scalar Net5.rte[4].queue[1] qlen:timeavg 0
attr interpolationmode sample-hold
attr title "queue length, timeavg"
scalar Net5.rte[4].queue[1] qlen:max 0
attr interpolationmode sample-hold
attr title "queue length, max"
scalar Net5.rte[4].queue[1] drop:count 0
attr interpolationmode none
attr title "dropped packet byte length, count"
attr unit bytes
scalar Net5.rte[4].queue[1] drop:sum 0
attr interpolationmode none
attr title "dropped packet byte length, sum"
attr unit bytes
scalar Net5.rte[4].queue[2] rxBytes:count 58
attr interpolationmode none
attr title "received packet byte length, count"
attr unit bytes
scalar Net5.rte[4].queue[2] rxBytes:sum 87000
attr interpolationmode none
attr title "received packet byte length, sum"
attr unit bytes
statistic Net5.rte[4].queue[2] rxBytes:histogram
field count 58
field mean 1500
field stddev 0
field min 1500
field max 1500
field sum 87000
field sqrsum 130500000
attr interpolationmode none
attr title "received packet byte length, histogram"
attr unit bytes
bin	-inf	0
bin	1499	0
bin	1500	58
bin	1501	0
scalar Net5.rte[4].queue[2] txBytes:count 6
attr interpolationmode none
attr title "transmitting packet byte length, count"
attr unit bytes
scalar Net5.rte[4].queue[2] txBytes:sum 9000
attr interpolationmode none
attr title "transmitting packet byte length, sum"
attr unit bytes
statistic Net5.rte[4].queue[2] txBytes:histogram
field count 6
field mean 1500
field stddev 0
field min 1500
field max 1500
field sum 9000
field sqrsum 13500000
attr interpolationmode none
attr title "transmitting packet byte length, histogram"
attr unit bytes
bin	-inf	0
bin	1499	0
bin	1500	6
bin	1501	0
scalar Net5.rte[4].queue[2] busy:timeavg 0.0001381340079405
attr interpolationmode sample-hold
attr title "server busy state, timeavg"
scalar Net5.rte[4].queue[2] qlen:timeavg 0
attr interpolationmode sample-hold
attr title "queue length, timeavg"
scalar Net5.rte[4].queue[2] qlen:max 0
attr interpolationmode sample-hold
attr title "queue length, max"
scalar Net5.rte[4].queue[2] drop:count 0
attr interpolationmode none
attr title "dropped packet byte length, count"
attr unit bytes
scalar Net5.rte[4].queue[2] drop:sum 0
attr interpolationmode none
attr title "dropped packet byte length, sum"
attr unit bytes
scalar Net5.rte[5].app hopCount:mean 4.5510204081633
attr interpolationmode none
attr title "hop count of arrived packets, mean"
scalar Net5.rte[5].app hopCount:max 6
attr interpolationmode none
attr title "hop count of arrived packets, max"
scalar Net5.rte[5].app endToEndDelay:mean 0.18452781930894
attr interpolationmode none
attr title "end-to-end delay of arrived packets, mean"
attr unit s
scalar Net5.rte[5].app endToEndDelay:max 0.281275159579
attr interpolationmode none
attr title "end-to-end delay of arrived packets, max"
attr unit s
statistic Net5.rte[5].routing outputIf:histogram
field count 100
field mean -0.49
field stddev 0.50241839379569
field min -1
field max 0
field sum -49
field sqrsum 49
attr interpolationmode none
attr title "output interface for each routed packet, histogram"
bin	-inf	0
bin	-2	0
bin	-1	49
bin	0	51
bin	1	0
scalar Net5.rte[5].routing drop:count 0
attr interpolationmode none
attr title "dropped packet byte length, count"
attr unit bytes
scalar Net5.rte[5].routing drop:sum 0
attr interpolationmode none
attr title "dropped packet byte length, sum"
attr unit bytes
scalar Net5.rte[5].queue[0] rxBytes:count 49
attr interpolationmode none
attr title "received packet byte length, count"
attr unit bytes
scalar Net5.rte[5].queue[0] rxBytes:sum 73500
attr interpolationmode none
attr title "received packet byte length, sum"
attr unit bytes
statistic Net5.rte[5].queue[0] rxBytes:histogram
field count 49
field mean 1500
field stddev 0
field min 1500
field max 1500
field sum 73500
field sqrsum 110250000
attr interpolationmode none
attr title "received packet byte length, histogram"
attr unit bytes
bin	-inf	0
bin	1499	0
bin	1500	49
bin	1501	0
scalar Net5.rte[5].queue[0] txBytes:count 51
attr interpolationmode none
attr title "transmitting packet byte length, count"
attr unit bytes
scalar Net5.rte[5].queue[0] txBytes:sum 76500
attr interpolationmode none
attr title "transmitting packet byte length, sum"
attr unit bytes
statistic Net5.rte[5].queue[0] txBytes:histogram
field count 51
field mean 1500
field stddev 0
field min 1500
field max 1500
field sum 76500
field sqrsum 114750000
attr interpolationmode none
attr title "transmitting packet byte length, histogram"
attr unit bytes
bin	-inf	0
bin	1499	0
bin	1500	51
bin	1501	0
scalar Net5.rte[5].queue[0] busy:timeavg 0.0011741390674942
attr interpolationmode sample-hold
attr title "server busy state, timeavg"
scalar Net5.rte[5].queue[0] qlen:timeavg 0.028202359954518
attr interpolationmode sample-hold
attr title "queue length, timeavg"
scalar Net5.rte[5].queue[0] qlen:max 49
attr interpolationmode sample-hold
attr title "queue length, max"
scalar Net5.rte[5].queue[0] drop:count 0
attr interpolationmode none
attr title "dropped packet byte length, count"
attr unit bytes
scalar Net5.rte[5].queue[0] drop:sum 0
attr interpolationmode none
attr title "dropped packet byte length, sum"
attr unit bytes
scalar Net5.rte[6].app hopCount:mean 3.265306122449
attr interpolationmode none
attr title "hop count of arrived packets, mean"
scalar Net5.rte[6].app hopCount:max 5
attr interpolationmode none
attr title "hop count of arrived packets, max"
scalar Net5.rte[6].app endToEndDelay:mean 0.17892633122614
attr interpolationmode none
attr title "end-to-end delay of arrived packets, mean"
attr unit s
scalar Net5.rte[6].app endToEndDelay:max 0.34491575432
attr interpolationmode none
attr title "end-to-end delay of arrived packets, max"
attr unit s
statistic Net5.rte[6].routing outputIf:histogram
field count 203
field mean 0.4679802955665
field stddev 1.0683147455921
field min -1
field max 2
field sum 95
field sqrsum 275
attr interpolationmode none
attr title "output interface for each routed packet, histogram"
bin	-inf	0
bin	-2	0
bin	-1	49
bin	0	51
bin	1	62
bin	2	41
bin	3	0
scalar Net5.rte[6].routing drop:count 0
attr interpolationmode none
attr title "dropped packet byte length, count"
attr unit bytes
scalar Net5.rte[6].routing drop:sum 0
attr interpolationmode none
attr title "dropped packet byte length, sum"
attr unit bytes
scalar Net5.rte[6].queue[0] rxBytes:count 57
attr interpolationmode none
attr title "received packet byte length, count"
attr unit bytes
scalar Net5.rte[6].queue[0] rxBytes:sum 85500
attr interpolationmode none
attr title "received packet byte length, sum"
attr unit bytes
statistic Net5.rte[6].queue[0] rxBytes:histogram
field count 57
field mean 1500
field stddev 0
field min 1500
field max 1500
field sum 85500
field sqrsum 128250000
attr interpolationmode none
attr title "received packet byte length, histogram"
attr unit bytes
bin	-inf	0
bin	1499	0
bin	1500	57
bin	1501	0
scalar Net5.rte[6].queue[0] txBytes:count 51
attr interpolationmode none
attr title "transmitting packet byte length, count"
attr unit bytes
scalar Net5.rte[6].queue[0] txBytes:sum 76500
attr interpolationmode none
attr title "transmitting packet byte length, sum"
attr unit bytes
statistic Net5.rte[6].queue[0] txBytes:histogram
field count 51
field mean 1500
field stddev 0
field min 1500
field max 1500
field sum 76500
field sqrsum 114750000
attr interpolationmode none
attr title "transmitting packet byte length, histogram"
attr unit bytes
bin	-inf	0
bin	1499	0
bin	1500	51
bin	1501	0
scalar Net5.rte[6].queue[0] busy:timeavg 0.0011741390674942
attr interpolationmode sample-hold
attr title "server busy state, timeavg"
scalar Net5.rte[6].queue[0] qlen:timeavg 0.00276268015881
attr interpolationmode sample-hold
attr title "queue length, timeavg"
scalar Net5.rte[6].queue[0] qlen:max 15
attr interpolationmode sample-hold
attr title "queue length, max"
scalar Net5.rte[6].queue[0] drop:count 0
attr interpolationmode none
attr title "dropped packet byte length, count"
attr unit bytes
scalar Net5.rte[6].queue[0] drop:sum 0
attr interpolationmode none
attr title "dropped packet byte length, sum"
attr unit bytes
scalar Net5.rte[6].queue[1] rxBytes:count 42
attr interpolationmode none
attr title "received packet byte length, count"
attr unit bytes
scalar Net5.rte[6].queue[1] rxBytes:sum 63000
attr interpolationmode none
attr title "received packet byte length, sum"
attr unit bytes
statistic Net5.rte[6].queue[1] rxBytes:histogram
field count 42
field mean 1500
field stddev 0
field min 1500
field max 1500
field sum 63000
field sqrsum 94500000
attr interpolationmode none
attr title "received packet byte length, histogram"
attr unit bytes
bin	-inf	0
bin	1499	0
bin	1500	42
bin	1501	0
scalar Net5.rte[6].queue[1] txBytes:count 62
attr interpolationmode none
attr title "transmitting packet byte length, count"
attr unit bytes
scalar Net5.rte[6].queue[1] txBytes:sum 93000
attr interpolationmode none
attr title "transmitting packet byte length, sum"
attr unit bytes
statistic Net5.rte[6].queue[1] txBytes:histogram
field count 62
field mean 1500
field stddev 0
field min 1500
field max 1500
field sum 93000
field sqrsum 139500000
attr interpolationmode none
attr title "transmitting packet byte length, histogram"
attr unit bytes
bin	-inf	0
bin	1499	0
bin	1500	62
bin	1501	0
scalar Net5.rte[6].queue[1] busy:timeavg 0.0014273847487185
attr interpolationmode sample-hold
attr title "server busy state, timeavg"
scalar Net5.rte[6].queue[1] qlen:timeavg 0.0047195786046337
attr interpolationmode sample-hold
attr title "queue length, timeavg"
scalar Net5.rte[6].queue[1] qlen:max 19
attr interpolationmode sample-hold
attr title "queue length, max"
scalar Net5.rte[6].queue[1] drop:count 0
attr interpolationmode none
attr title "dropped packet byte length, count"
attr unit bytes
scalar Net5.rte[6].queue[1] drop:sum 0
attr interpolationmode none
attr title "dropped packet byte length, sum"
attr unit bytes
scalar Net5.rte[6].queue[2] rxBytes:count 53
attr interpolationmode none
attr title "received packet byte length, count"
attr unit bytes
scalar Net5.rte[6].queue[2] rxBytes:sum 79500
attr interpolationmode none
attr title "received packet byte length, sum"
attr unit bytes
statistic Net5.rte[6].queue[2] rxBytes:histogram
field count 53
field mean 1500
field stddev 0
field min 1500
field max 1500
field sum 79500
field sqrsum 119250000
attr interpolationmode none
attr title "received packet byte length, histogram"
attr unit bytes
bin	-inf	0
bin	1499	0
bin	1500	53
bin	1501	0
scalar Net5.rte[6].queue[2] txBytes:count 41
attr interpolationmode none
attr title "transmitting packet byte length, count"
attr unit bytes
scalar Net5.rte[6].queue[2] txBytes:sum 61500
attr interpolationmode none
attr title "transmitting packet byte length, sum"
attr unit bytes
statistic Net5.rte[6].queue[2] txBytes:histogram
field count 41
field mean 1500
field stddev 0
field min 1500
field max 1500
field sum 61500
field sqrsum 92250000
attr interpolationmode none
attr title "transmitting packet byte length, histogram"
attr unit bytes
bin	-inf	0
bin	1499	0
bin	1500	41
bin	1501	0
scalar Net5.rte[6].queue[2] busy:timeavg 0.00094391572092674
attr interpolationmode sample-hold
attr title "server busy state, timeavg"
scalar Net5.rte[6].queue[2] qlen:timeavg 0.0017957421032265
attr interpolationmode sample-hold
attr title "queue length, timeavg"
scalar Net5.rte[6].queue[2] qlen:max 12
attr interpolationmode sample-hold
attr title "queue length, max"
scalar Net5.rte[6].queue[2] drop:count 0
attr interpolationmode none
attr title "dropped packet byte length, count"
attr unit bytes
scalar Net5.rte[6].queue[2] drop:sum 0
attr interpolationmode none
attr title "dropped packet byte length, sum"
attr unit bytes
scalar Net5.rte[7].app hopCount:mean 2.843137254902
attr interpolationmode none
attr title "hop count of arrived packets, mean"
scalar Net5.rte[7].app hopCount:max 4
attr interpolationmode none
attr title "hop count of arrived packets, max"
scalar Net5.rte[7].app endToEndDelay:mean 0.17724722256224
attr interpolationmode none
attr title "end-to-end delay of arrived packets, mean"
attr unit s
scalar Net5.rte[7].app endToEndDelay:max 0.310080794643
attr interpolationmode none
attr title "end-to-end delay of arrived packets, max"
attr unit s
statistic Net5.rte[7].routing outputIf:histogram
field count 263
field mean 0.60456273764259
field stddev 1.057280330558
field min -1
field max 2
field sum 159
field sqrsum 389
attr interpolationmode none
attr title "output interface for each routed packet, histogram"
bin	-inf	0
bin	-2	0
bin	-1	51
bin	0	66
bin	1	82
bin	2	64
bin	3	0
scalar Net5.rte[7].routing drop:count 0
attr interpolationmode none
attr title "dropped packet byte length, count"
attr unit bytes
scalar Net5.rte[7].routing drop:sum 0
attr interpolationmode none
attr title "dropped packet byte length, sum"
attr unit bytes
scalar Net5.rte[7].queue[0] rxBytes:count 46
attr interpolationmode none
attr title "received packet byte length, count"
attr unit bytes
scalar Net5.rte[7].queue[0] rxBytes:sum 69000
attr interpolationmode none
attr title "received packet byte length, sum"
attr unit bytes
statistic Net5.rte[7].queue[0] rxBytes:histogram
field count 46
field mean 1500
field stddev 0
field min 1500
field max 1500
field sum 69000
field sqrsum 103500000
attr interpolationmode none
attr title "received packet byte length, histogram"
attr unit bytes
bin	-inf	0
bin	1499	0
bin	1500	46
bin	1501	0
scalar Net5.rte[7].queue[0] txBytes:count 66
attr interpolationmode none
attr title "transmitting packet byte length, count"
attr unit bytes
scalar Net5.rte[7].queue[0] txBytes:sum 99010
attr interpolationmode none
attr title "transmitting packet byte length, sum"
attr unit bytes
statistic Net5.rte[7].queue[0] txBytes:histogram
field count 66
field mean 1500.1515151515
field stddev 1.2309149098836
field min 1500
field max 1510
field sum 99010
field sqrsum 148530100
attr interpolationmode none
attr title "transmitting packet byte length, histogram"
attr unit bytes
bin	-inf	0
bin	1497	0
bin	1498	0
bin	1499	0
bin	1500	65
bin	1501	0
bin	1502	0
bin	1503	0
bin	1504	0
bin	1505	0
bin	1506	0
bin	1507	0
bin	1508	0
bin	1509	0
bin	1510	1
bin	1511	0
bin	1512	0
bin	1513	0
scalar Net5.rte[7].queue[0] busy:timeavg 0.0015196275696358
attr interpolationmode sample-hold
attr title "server busy state, timeavg"
scalar Net5.rte[7].queue[0] qlen:timeavg 0.0041900649075285
attr interpolationmode sample-hold
attr title "queue length, timeavg"
scalar Net5.rte[7].queue[0] qlen:max 13
attr interpolationmode sample-hold
attr title "queue length, max"
scalar Net5.rte[7].queue[0] drop:count 0
attr interpolationmode none
attr title "dropped packet byte length, count"
attr unit bytes
scalar Net5.rte[7].queue[0] drop:sum 0
attr interpolationmode none
attr title "dropped packet byte length, sum"
attr unit bytes
scalar Net5.rte[7].queue[1] rxBytes:count 31
attr interpolationmode none
attr title "received packet byte length, count"
attr unit bytes
scalar Net5.rte[7].queue[1] rxBytes:sum 46500
attr interpolationmode none
attr title "received packet byte length, sum"
attr unit bytes
statistic Net5.rte[7].queue[1] rxBytes:histogram
field count 31
field mean 1500
field stddev 0
field min 1500
field max 1500
field sum 46500
field sqrsum 69750000
attr interpolationmode none
attr title "received packet byte length, histogram"
attr unit bytes
bin	-inf	0
bin	1499	0
bin	1500	31
bin	1501	0
scalar Net5.rte[7].queue[1] txBytes:count 82
attr interpolationmode none
attr title "transmitting packet byte length, count"
attr unit bytes
scalar Net5.rte[7].queue[1] txBytes:sum 123000
attr interpolationmode none
attr title "transmitting packet byte length, sum"
attr unit bytes
statistic Net5.rte[7].queue[1] txBytes:histogram
field count 82
field mean 1500
field stddev 0
field min 1500
field max 1500
field sum 123000
field sqrsum 184500000
attr interpolationmode none
attr title "transmitting packet byte length, histogram"
attr unit bytes
bin	-inf	0
bin	1499	0
bin	1500	82
bin	1501	0
scalar Net5.rte[7].queue[1] busy:timeavg 0.0018878314418535
attr interpolationmode sample-hold
attr title "server busy state, timeavg"
scalar Net5.rte[7].queue[1] qlen:timeavg 0.010636318611418
attr interpolationmode sample-hold
attr title "queue length, timeavg"
scalar Net5.rte[7].queue[1] qlen:max 21
attr interpolationmode sample-hold
attr title "queue length, max"
scalar Net5.rte[7].queue[1] drop:count 0
attr interpolationmode none
attr title "dropped packet byte length, count"
attr unit bytes
scalar Net5.rte[7].queue[1] drop:sum 0
attr interpolationmode none
attr title "dropped packet byte length, sum"
attr unit bytes
scalar Net5.rte[7].queue[2] rxBytes:count 83
attr interpolationmode none
attr title "received packet byte length, count"
attr unit bytes
scalar Net5.rte[7].queue[2] rxBytes:sum 124500
attr interpolationmode none
attr title "received packet byte length, sum"
attr unit bytes
statistic Net5.rte[7].queue[2] rxBytes:histogram
field count 83
field mean 1500
field stddev 0
field min 1500
field max 1500
field sum 124500
field sqrsum 186750000
attr interpolationmode none
attr title "received packet byte length, histogram"
attr unit bytes
bin	-inf	0
bin	1499	0
bin	1500	83
bin	1501	0
scalar Net5.rte[7].queue[2] txBytes:count 64
attr interpolationmode none
attr title "transmitting packet byte length, count"
attr unit bytes
scalar Net5.rte[7].queue[2] txBytes:sum 96000
attr interpolationmode none
attr title "transmitting packet byte length, sum"
attr unit bytes
statistic Net5.rte[7].queue[2] txBytes:histogram
field count 64
field mean 1500
field stddev 0
field min 1500
field max 1500
field sum 96000
field sqrsum 144000000
attr interpolationmode none
attr title "transmitting packet byte length, histogram"
attr unit bytes
bin	-inf	0
bin	1499	0
bin	1500	64
bin	1501	0
scalar Net5.rte[7].queue[2] busy:timeavg 0.001473429418032
attr interpolationmode sample-hold
attr title "server busy state, timeavg"
scalar Net5.rte[7].queue[2] qlen:timeavg 0.0038907745569907
attr interpolationmode sample-hold
attr title "queue length, timeavg"
scalar Net5.rte[7].queue[2] qlen:max 13
attr interpolationmode sample-hold
attr title "queue length, max"
scalar Net5.rte[7].queue[2] drop:count 0
attr interpolationmode none
attr title "dropped packet byte length, count"
attr unit bytes
scalar Net5.rte[7].queue[2] drop:sum 0
attr interpolationmode none
attr title "dropped packet byte length, sum"
attr unit bytes
scalar Net5.rte[8].app hopCount:mean 2.7551020408163
attr interpolationmode none
attr title "hop count of arrived packets, mean"
scalar Net5.rte[8].app hopCount:max 5
attr interpolationmode none
attr title "hop count of arrived packets, max"
scalar Net5.rte[8].app endToEndDelay:mean 0.18196187788837
attr interpolationmode none
attr title "end-to-end delay of arrived packets, mean"
attr unit s
scalar Net5.rte[8].app endToEndDelay:max 0.288545669773
attr interpolationmode none
attr title "end-to-end delay of arrived packets, max"
attr unit s
statistic Net5.rte[8].routing outputIf:histogram
field count 255
field mean 1.6156862745098
field stddev 2.0315787031698
field min -1
field max 5
field sum 412
field sqrsum 1714
attr interpolationmode none
attr title "output interface for each routed packet, histogram"
bin	-inf	0
bin	-3	0
bin	-2	0
bin	-1	49
bin	0	37
bin	1	57
bin	2	25
bin	3	31
bin	4	19
bin	5	37
bin	6	0
bin	7	0
scalar Net5.rte[8].routing drop:count 0
attr interpolationmode none
attr title "dropped packet byte length, count"
attr unit bytes
scalar Net5.rte[8].routing drop:sum 0
attr interpolationmode none
attr title "dropped packet byte length, sum"
attr unit bytes
scalar Net5.rte[8].queue[0] rxBytes:count 68
attr interpolationmode none
attr title "received packet byte length, count"
attr unit bytes
scalar Net5.rte[8].queue[0] rxBytes:sum 102000
attr interpolationmode none
attr title "received packet byte length, sum"
attr unit bytes
statistic Net5.rte[8].queue[0] rxBytes:histogram
field count 68
field mean 1500
field stddev 0
field min 1500
field max 1500
field sum 102000
field sqrsum 153000000
attr interpolationmode none
attr title "received packet byte length, histogram"
attr unit bytes
bin	-inf	0
bin	1499	0
bin	1500	68
bin	1501	0
scalar Net5.rte[8].queue[0] txBytes:count 37
attr interpolationmode none
attr title "transmitting packet byte length, count"
attr unit bytes
scalar Net5.rte[8].queue[0] txBytes:sum 55500
attr interpolationmode none
attr title "transmitting packet byte length, sum"
attr unit bytes
statistic Net5.rte[8].queue[0] txBytes:histogram
field count 37
field mean 1500
field stddev 0
field min 1500
field max 1500
field sum 55500
field sqrsum 83250000
attr interpolationmode none
attr title "transmitting packet byte length, histogram"
attr unit bytes
bin	-inf	0
bin	1499	0
bin	1500	37
bin	1501	0
scalar Net5.rte[8].queue[0] busy:timeavg 0.00085182638229974
attr interpolationmode sample-hold
attr title "server busy state, timeavg"
scalar Net5.rte[8].queue[0] qlen:timeavg 0
attr interpolationmode sample-hold
attr title "queue length, timeavg"
scalar Net5.rte[8].queue[0] qlen:max 0
attr interpolationmode sample-hold
attr title "queue length, max"
scalar Net5.rte[8].queue[0] drop:count 0
attr interpolationmode none
attr title "dropped packet byte length, count"
attr unit bytes
scalar Net5.rte[8].queue[0] drop:sum 0
attr interpolationmode none
attr title "dropped packet byte length, sum"
attr unit bytes
scalar Net5.rte[8].queue[1] rxBytes:count 60
attr interpolationmode none
attr title "received packet byte length, count"
attr unit bytes
scalar Net5.rte[8].queue[1] rxBytes:sum 90000
attr interpolationmode none
attr title "received packet byte length, sum"
attr unit bytes
statistic Net5.rte[8].queue[1] rxBytes:histogram
field count 60
field mean 1500
field stddev 0
field min 1500
field max 1500
field sum 90000
field sqrsum 135000000
attr interpolationmode none
attr title "received packet byte length, histogram"
attr unit bytes
bin	-inf	0
bin	1499	0
bin	1500	60
bin	1501	0
scalar Net5.rte[8].queue[1] txBytes:count 57
attr interpolationmode none
attr title "transmitting packet byte length, count"
attr unit bytes
scalar Net5.rte[8].queue[1] txBytes:sum 85500
attr interpolationmode none
attr title "transmitting packet byte length, sum"
attr unit bytes
statistic Net5.rte[8].queue[1] txBytes:histogram
field count 57
field mean 1500
field stddev 0
field min 1500
field max 1500
field sum 85500
field sqrsum 128250000
attr interpolationmode none
attr title "transmitting packet byte length, histogram"
attr unit bytes
bin	-inf	0
bin	1499	0
bin	1500	57
bin	1501	0
scalar Net5.rte[8].queue[1] busy:timeavg 0.0013122730754347
attr interpolationmode sample-hold
attr title "server busy state, timeavg"
scalar Net5.rte[8].queue[1] qlen:timeavg 0
attr interpolationmode sample-hold
attr title "queue length, timeavg"
scalar Net5.rte[8].queue[1] qlen:max 0
attr interpolationmode sample-hold
attr title "queue length, max"
scalar Net5.rte[8].queue[1] drop:count 0
attr interpolationmode none
attr title "dropped packet byte length, count"
attr unit bytes
scalar Net5.rte[8].queue[1] drop:sum 0
attr interpolationmode none
attr title "dropped packet byte length, sum"
attr unit bytes
scalar Net5.rte[8].queue[2] rxBytes:count 65
attr interpolationmode none
attr title "received packet byte length, count"
attr unit bytes
scalar Net5.rte[8].queue[2] rxBytes:sum 97500
attr interpolationmode none
attr title "received packet byte length, sum"
attr unit bytes
statistic Net5.rte[8].queue[2] rxBytes:histogram
field count 65
field mean 1500
field stddev 0
field min 1500
field max 1500
field sum 97500
field sqrsum 146250000
attr interpolationmode none
attr title "received packet byte length, histogram"
attr unit bytes
bin	-inf	0
bin	1499	0
bin	1500	65
bin	1501	0
scalar Net5.rte[8].queue[2] txBytes:count 25
attr interpolationmode none
attr title "transmitting packet byte length, count"
attr unit bytes
scalar Net5.rte[8].queue[2] txBytes:sum 37500
attr interpolationmode none
attr title "transmitting packet byte length, sum"
attr unit bytes
statistic Net5.rte[8].queue[2] txBytes:histogram
field count 25
field mean 1500
field stddev 0
field min 1500
field max 1500
field sum 37500
field sqrsum 56250000
attr interpolationmode none
attr title "transmitting packet byte length, histogram"
attr unit bytes
bin	-inf	0
bin	1499	0
bin	1500	25
bin	1501	0
scalar Net5.rte[8].queue[2] busy:timeavg 0.00057555836641874
attr interpolationmode sample-hold
attr title "server busy state, timeavg"
scalar Net5.rte[8].queue[2] qlen:timeavg 0
attr interpolationmode sample-hold
attr title "queue length, timeavg"
scalar Net5.rte[8].queue[2] qlen:max 0
attr interpolationmode sample-hold
attr title "queue length, max"
scalar Net5.rte[8].queue[2] drop:count 0
attr interpolationmode none
attr title "dropped packet byte length, count"
attr unit bytes
scalar Net5.rte[8].queue[2] drop:sum 0
attr interpolationmode none
attr title "dropped packet byte length, sum"
attr unit bytes
scalar Net5.rte[8].queue[3] rxBytes:count 22
attr interpolationmode none
attr title "received packet byte length, count"
attr unit bytes
scalar Net5.rte[8].queue[3] rxBytes:sum 33000
attr interpolationmode none
attr title "received packet byte length, sum"
attr unit bytes
statistic Net5.rte[8].queue[3] rxBytes:histogram
field count 22
field mean 1500
field stddev 0
field min 1500
field max 1500
field sum 33000
field sqrsum 49500000
attr interpolationmode none
attr title "received packet byte length, histogram"
attr unit bytes
bin	-inf	0
bin	1499	0
bin	1500	22
bin	1501	0
scalar Net5.rte[8].queue[3] txBytes:count 31
attr interpolationmode none
attr title "transmitting packet byte length, count"
attr unit bytes
scalar Net5.rte[8].queue[3] txBytes:sum 46500
attr interpolationmode none
attr title "transmitting packet byte length, sum"
attr unit bytes
statistic Net5.rte[8].queue[3] txBytes:histogram
field count 31
field mean 1500
field stddev 0
field min 1500
field max 1500
field sum 46500
field sqrsum 69750000
attr interpolationmode none
attr title "transmitting packet byte length, histogram"
attr unit bytes
bin	-inf	0
bin	1499	0
bin	1500	31
bin	1501	0
scalar Net5.rte[8].queue[3] busy:timeavg 0.00071369237435924
attr interpolationmode sample-hold
attr title "server busy state, timeavg"
scalar Net5.rte[8].queue[3] qlen:timeavg 3.1811291966075e-007
attr interpolationmode sample-hold
attr title "queue length, timeavg"
scalar Net5.rte[8].queue[3] qlen:max 1
attr interpolationmode sample-hold
attr title "queue length, max"
scalar Net5.rte[8].queue[3] drop:count 0
attr interpolationmode none
attr title "dropped packet byte length, count"
attr unit bytes
scalar Net5.rte[8].queue[3] drop:sum 0
attr interpolationmode none
attr title "dropped packet byte length, sum"
attr unit bytes
scalar Net5.rte[8].queue[4] rxBytes:count 33
attr interpolationmode none
attr title "received packet byte length, count"
attr unit bytes
scalar Net5.rte[8].queue[4] rxBytes:sum 49500
attr interpolationmode none
attr title "received packet byte length, sum"
attr unit bytes
statistic Net5.rte[8].queue[4] rxBytes:histogram
field count 33
field mean 1500
field stddev 0
field min 1500
field max 1500
field sum 49500
field sqrsum 74250000
attr interpolationmode none
attr title "received packet byte length, histogram"
attr unit bytes
bin	-inf	0
bin	1499	0
bin	1500	33
bin	1501	0
scalar Net5.rte[8].queue[4] txBytes:count 19
attr interpolationmode none
attr title "transmitting packet byte length, count"
attr unit bytes
scalar Net5.rte[8].queue[4] txBytes:sum 28500
attr interpolationmode none
attr title "transmitting packet byte length, sum"
attr unit bytes
statistic Net5.rte[8].queue[4] txBytes:histogram
field count 19
field mean 1500
field stddev 0
field min 1500
field max 1500
field sum 28500
field sqrsum 42750000
attr interpolationmode none
attr title "transmitting packet byte length, histogram"
attr unit bytes
bin	-inf	0
bin	1499	0
bin	1500	19
bin	1501	0
scalar Net5.rte[8].queue[4] busy:timeavg 0.00043742435847825
attr interpolationmode sample-hold
attr title "server busy state, timeavg"
scalar Net5.rte[8].queue[4] qlen:timeavg 3.1811291966075e-007
attr interpolationmode sample-hold
attr title "queue length, timeavg"
scalar Net5.rte[8].queue[4] qlen:max 1
attr interpolationmode sample-hold
attr title "queue length, max"
scalar Net5.rte[8].queue[4] drop:count 0
attr interpolationmode none
attr title "dropped packet byte length, count"
attr unit bytes
scalar Net5.rte[8].queue[4] drop:sum 0
attr interpolationmode none
attr title "dropped packet byte length, sum"
attr unit bytes
scalar Net5.rte[8].queue[5] rxBytes:count 6
attr interpolationmode none
attr title "received packet byte length, count"
attr unit bytes
scalar Net5.rte[8].queue[5] rxBytes:sum 9000
attr interpolationmode none
attr title "received packet byte length, sum"
attr unit bytes
statistic Net5.rte[8].queue[5] rxBytes:histogram
field count 6
field mean 1500
field stddev 0
field min 1500
field max 1500
field sum 9000
field sqrsum 13500000
attr interpolationmode none
attr title "received packet byte length, histogram"
attr unit bytes
bin	-inf	0
bin	1499	0
bin	1500	6
bin	1501	0
scalar Net5.rte[8].queue[5] txBytes:count 37
attr interpolationmode none
attr title "transmitting packet byte length, count"
attr unit bytes
scalar Net5.rte[8].queue[5] txBytes:sum 55500
attr interpolationmode none
attr title "transmitting packet byte length, sum"
attr unit bytes
statistic Net5.rte[8].queue[5] txBytes:histogram
field count 37
field mean 1500
field stddev 0
field min 1500
field max 1500
field sum 55500
field sqrsum 83250000
attr interpolationmode none
attr title "transmitting packet byte length, histogram"
attr unit bytes
bin	-inf	0
bin	1499	0
bin	1500	37
bin	1501	0
scalar Net5.rte[8].queue[5] busy:timeavg 0.00085182638229974
attr interpolationmode sample-hold
attr title "server busy state, timeavg"
scalar Net5.rte[8].queue[5] qlen:timeavg 0
attr interpolationmode sample-hold
attr title "queue length, timeavg"
scalar Net5.rte[8].queue[5] qlen:max 0
attr interpolationmode sample-hold
attr title "queue length, max"
scalar Net5.rte[8].queue[5] drop:count 0
attr interpolationmode none
attr title "dropped packet byte length, count"
attr unit bytes
scalar Net5.rte[8].queue[5] drop:sum 0
attr interpolationmode none
attr title "dropped packet byte length, sum"
attr unit bytes
scalar Net5.rte[9].app hopCount:mean 3.7659574468085
attr interpolationmode none
attr title "hop count of arrived packets, mean"
scalar Net5.rte[9].app hopCount:max 5
attr interpolationmode none
attr title "hop count of arrived packets, max"
scalar Net5.rte[9].app endToEndDelay:mean 0.19006600058072
attr interpolationmode none
attr title "end-to-end delay of arrived packets, mean"
attr unit s
scalar Net5.rte[9].app endToEndDelay:max 0.378227333244
attr interpolationmode none
attr title "end-to-end delay of arrived packets, max"
attr unit s
statistic Net5.rte[9].routing outputIf:histogram
field count 69
field mean -0.59420289855072
field stddev 0.64895482892993
field min -1
field max 1
field sum -41
field sqrsum 53
attr interpolationmode none
attr title "output interface for each routed packet, histogram"
bin	-inf	0
bin	-2	0
bin	-1	47
bin	0	16
bin	1	6
bin	2	0
scalar Net5.rte[9].routing drop:count 0
attr interpolationmode none
attr title "dropped packet byte length, count"
attr unit bytes
scalar Net5.rte[9].routing drop:sum 0
attr interpolationmode none
attr title "dropped packet byte length, sum"
attr unit bytes
scalar Net5.rte[9].queue[0] rxBytes:count 27
attr interpolationmode none
attr title "received packet byte length, count"
attr unit bytes
scalar Net5.rte[9].queue[0] rxBytes:sum 40500
attr interpolationmode none
attr title "received packet byte length, sum"
attr unit bytes
statistic Net5.rte[9].queue[0] rxBytes:histogram
field count 27
field mean 1500
field stddev 0
field min 1500
field max 1500
field sum 40500
field sqrsum 60750000
attr interpolationmode none
attr title "received packet byte length, histogram"
attr unit bytes
bin	-inf	0
bin	1499	0
bin	1500	27
bin	1501	0
scalar Net5.rte[9].queue[0] txBytes:count 16
attr interpolationmode none
attr title "transmitting packet byte length, count"
attr unit bytes
scalar Net5.rte[9].queue[0] txBytes:sum 24000
attr interpolationmode none
attr title "transmitting packet byte length, sum"
attr unit bytes
statistic Net5.rte[9].queue[0] txBytes:histogram
field count 16
field mean 1500
field stddev 0
field min 1500
field max 1500
field sum 24000
field sqrsum 36000000
attr interpolationmode none
attr title "transmitting packet byte length, histogram"
attr unit bytes
bin	-inf	0
bin	1499	0
bin	1500	16
bin	1501	0
scalar Net5.rte[9].queue[0] busy:timeavg 0.000368357354508
attr interpolationmode sample-hold
attr title "server busy state, timeavg"
scalar Net5.rte[9].queue[0] qlen:timeavg 0
attr interpolationmode sample-hold
attr title "queue length, timeavg"
scalar Net5.rte[9].queue[0] qlen:max 0
attr interpolationmode sample-hold
attr title "queue length, max"
scalar Net5.rte[9].queue[0] drop:count 0
attr interpolationmode none
attr title "dropped packet byte length, count"
attr unit bytes
scalar Net5.rte[9].queue[0] drop:sum 0
attr interpolationmode none
attr title "dropped packet byte length, sum"
attr unit bytes
scalar Net5.rte[9].queue[1] rxBytes:count 42
attr interpolationmode none
attr title "received packet byte length, count"
attr unit bytes
scalar Net5.rte[9].queue[1] rxBytes:sum 63000
attr interpolationmode none
attr title "received packet byte length, sum"
attr unit bytes
statistic Net5.rte[9].queue[1] rxBytes:histogram
field count 42
field mean 1500
field stddev 0
field min 1500
field max 1500
field sum 63000
field sqrsum 94500000
attr interpolationmode none
attr title "received packet byte length, histogram"
attr unit bytes
bin	-inf	0
bin	1499	0
bin	1500	42
bin	1501	0
scalar Net5.rte[9].queue[1] txBytes:count 6
attr interpolationmode none
attr title "transmitting packet byte length, count"
attr unit bytes
scalar Net5.rte[9].queue[1] txBytes:sum 9000
attr interpolationmode none
attr title "transmitting packet byte length, sum"
attr unit bytes
statistic Net5.rte[9].queue[1] txBytes:histogram
field count 6
field mean 1500
field stddev 0
field min 1500
field max 1500
field sum 9000
field sqrsum 13500000
attr interpolationmode none
attr title "transmitting packet byte length, histogram"
attr unit bytes
bin	-inf	0
bin	1499	0
bin	1500	6
bin	1501	0
scalar Net5.rte[9].queue[1] busy:timeavg 0.0001381340079405
attr interpolationmode sample-hold
attr title "server busy state, timeavg"
scalar Net5.rte[9].queue[1] qlen:timeavg 0
attr interpolationmode sample-hold
attr title "queue length, timeavg"
scalar Net5.rte[9].queue[1] qlen:max 0
attr interpolationmode sample-hold
attr title "queue length, max"
scalar Net5.rte[9].queue[1] drop:count 0
attr interpolationmode none
attr title "dropped packet byte length, count"
attr unit bytes
scalar Net5.rte[9].queue[1] drop:sum 0
attr interpolationmode none
attr title "dropped packet byte length, sum"
attr unit bytes
scalar Net5.rte[10].app hopCount:mean 2.8571428571429
attr interpolationmode none
attr title "hop count of arrived packets, mean"
scalar Net5.rte[10].app hopCount:max 4
attr interpolationmode none
attr title "hop count of arrived packets, max"
scalar Net5.rte[10].app endToEndDelay:mean 0.16737872446694
attr interpolationmode none
attr title "end-to-end delay of arrived packets, mean"
attr unit s
scalar Net5.rte[10].app endToEndDelay:max 0.293988713239
attr interpolationmode none
attr title "end-to-end delay of arrived packets, max"
attr unit s
statistic Net5.rte[10].routing outputIf:histogram
field count 227
field mean 0.70044052863436
field stddev 1.2684565841844
field min -1
field max 3
field sum 159
field sqrsum 475
attr interpolationmode none
attr title "output interface for each routed packet, histogram"
bin	-inf	0
bin	-2	0
bin	-1	49
bin	0	57
bin	1	56
bin	2	43
bin	3	22
bin	4	0
scalar Net5.rte[10].routing drop:count 0
attr interpolationmode none
attr title "dropped packet byte length, count"
attr unit bytes
scalar Net5.rte[10].routing drop:sum 0
attr interpolationmode none
attr title "dropped packet byte length, sum"
attr unit bytes
scalar Net5.rte[10].queue[0] rxBytes:count 51
attr interpolationmode none
attr title "received packet byte length, count"
attr unit bytes
scalar Net5.rte[10].queue[0] rxBytes:sum 76500
attr interpolationmode none
attr title "received packet byte length, sum"
attr unit bytes
statistic Net5.rte[10].queue[0] rxBytes:histogram
field count 51
field mean 1500
field stddev 0
field min 1500
field max 1500
field sum 76500
field sqrsum 114750000
attr interpolationmode none
attr title "received packet byte length, histogram"
attr unit bytes
bin	-inf	0
bin	1499	0
bin	1500	51
bin	1501	0
scalar Net5.rte[10].queue[0] txBytes:count 57
attr interpolationmode none
attr title "transmitting packet byte length, count"
attr unit bytes
scalar Net5.rte[10].queue[0] txBytes:sum 85500
attr interpolationmode none
attr title "transmitting packet byte length, sum"
attr unit bytes
statistic Net5.rte[10].queue[0] txBytes:histogram
field count 57
field mean 1500
field stddev 0
field min 1500
field max 1500
field sum 85500
field sqrsum 128250000
attr interpolationmode none
attr title "transmitting packet byte length, histogram"
attr unit bytes
bin	-inf	0
bin	1499	0
bin	1500	57
bin	1501	0
scalar Net5.rte[10].queue[0] busy:timeavg 0.0013122730754347
attr interpolationmode sample-hold
attr title "server busy state, timeavg"
scalar Net5.rte[10].queue[0] qlen:timeavg 0.00042503629437704
attr interpolationmode sample-hold
attr title "queue length, timeavg"
scalar Net5.rte[10].queue[0] qlen:max 5
attr interpolationmode sample-hold
attr title "queue length, max"
scalar Net5.rte[10].queue[0] drop:count 0
attr interpolationmode none
attr title "dropped packet byte length, count"
attr unit bytes
scalar Net5.rte[10].queue[0] drop:sum 0
attr interpolationmode none
attr title "dropped packet byte length, sum"
attr unit bytes
scalar Net5.rte[10].queue[1] rxBytes:count 70
attr interpolationmode none
attr title "received packet byte length, count"
attr unit bytes
scalar Net5.rte[10].queue[1] rxBytes:sum 105000
attr interpolationmode none
attr title "received packet byte length, sum"
attr unit bytes
statistic Net5.rte[10].queue[1] rxBytes:histogram
field count 70
field mean 1500
field stddev 0
field min 1500
field max 1500
field sum 105000
field sqrsum 157500000
attr interpolationmode none
attr title "received packet byte length, histogram"
attr unit bytes
bin	-inf	0
bin	1499	0
bin	1500	70
bin	1501	0
scalar Net5.rte[10].queue[1] txBytes:count 56
attr interpolationmode none
attr title "transmitting packet byte length, count"
attr unit bytes
scalar Net5.rte[10].queue[1] txBytes:sum 84000
attr interpolationmode none
attr title "transmitting packet byte length, sum"
attr unit bytes
statistic Net5.rte[10].queue[1] txBytes:histogram
field count 56
field mean 1500
field stddev 0
field min 1500
field max 1500
field sum 84000
field sqrsum 126000000
attr interpolationmode none
attr title "transmitting packet byte length, histogram"
attr unit bytes
bin	-inf	0
bin	1499	0
bin	1500	56
bin	1501	0
scalar Net5.rte[10].queue[1] busy:timeavg 0.001289250740778
attr interpolationmode sample-hold
attr title "server busy state, timeavg"
scalar Net5.rte[10].queue[1] qlen:timeavg 0.0039368192263042
attr interpolationmode sample-hold
attr title "queue length, timeavg"
scalar Net5.rte[10].queue[1] qlen:max 18
attr interpolationmode sample-hold
attr title "queue length, max"
scalar Net5.rte[10].queue[1] drop:count 0
attr interpolationmode none
attr title "dropped packet byte length, count"
attr unit bytes
scalar Net5.rte[10].queue[1] drop:sum 0
attr interpolationmode none
attr title "dropped packet byte length, sum"
attr unit bytes
scalar Net5.rte[10].queue[2] rxBytes:count 50
attr interpolationmode none
attr title "received packet byte length, count"
attr unit bytes
scalar Net5.rte[10].queue[2] rxBytes:sum 75000
attr interpolationmode none
attr title "received packet byte length, sum"
attr unit bytes
statistic Net5.rte[10].queue[2] rxBytes:histogram
field count 50
field mean 1500
field stddev 0
field min 1500
field max 1500
field sum 75000
field sqrsum 112500000
attr interpolationmode none
attr title "received packet byte length, histogram"
attr unit bytes
bin	-inf	0
bin	1499	0
bin	1500	50
bin	1501	0
scalar Net5.rte[10].queue[2] txBytes:count 43
attr interpolationmode none
attr title "transmitting packet byte length, count"
attr unit bytes
scalar Net5.rte[10].queue[2] txBytes:sum 64500
attr interpolationmode none
attr title "transmitting packet byte length, sum"
attr unit bytes
statistic Net5.rte[10].queue[2] txBytes:histogram
field count 43
field mean 1500
field stddev 0
field min 1500
field max 1500
field sum 64500
field sqrsum 96750000
attr interpolationmode none
attr title "transmitting packet byte length, histogram"
attr unit bytes
bin	-inf	0
bin	1499	0
bin	1500	43
bin	1501	0
scalar Net5.rte[10].queue[2] busy:timeavg 0.00098996039024024
attr interpolationmode sample-hold
attr title "server busy state, timeavg"
scalar Net5.rte[10].queue[2] qlen:timeavg 0.0037065958797367
attr interpolationmode sample-hold
attr title "queue length, timeavg"
scalar Net5.rte[10].queue[2] qlen:max 17
attr interpolationmode sample-hold
attr title "queue length, max"
scalar Net5.rte[10].queue[2] drop:count 0
attr interpolationmode none
attr title "dropped packet byte length, count"
attr unit bytes
scalar Net5.rte[10].queue[2] drop:sum 0
attr interpolationmode none
attr title "dropped packet byte length, sum"
attr unit bytes
scalar Net5.rte[10].queue[3] rxBytes:count 5
attr interpolationmode none
attr title "received packet byte length, count"
attr unit bytes
scalar Net5.rte[10].queue[3] rxBytes:sum 7500
attr interpolationmode none
attr title "received packet byte length, sum"
attr unit bytes
statistic Net5.rte[10].queue[3] rxBytes:histogram
field count 5
field mean 1500
field stddev 0
field min 1500
field max 1500
field sum 7500
field sqrsum 11250000
attr interpolationmode none
attr title "received packet byte length, histogram"
attr unit bytes
bin	-inf	0
bin	1499	0
bin	1500	5
bin	1501	0
scalar Net5.rte[10].queue[3] txBytes:count 22
attr interpolationmode none
attr title "transmitting packet byte length, count"
attr unit bytes
scalar Net5.rte[10].queue[3] txBytes:sum 33000
attr interpolationmode none
attr title "transmitting packet byte length, sum"
attr unit bytes
statistic Net5.rte[10].queue[3] txBytes:histogram
field count 22
field mean 1500
field stddev 0
field min 1500
field max 1500
field sum 33000
field sqrsum 49500000
attr interpolationmode none
attr title "transmitting packet byte length, histogram"
attr unit bytes
bin	-inf	0
bin	1499	0
bin	1500	22
bin	1501	0
scalar Net5.rte[10].queue[3] busy:timeavg 0.00050649136244849
attr interpolationmode sample-hold
attr title "server busy state, timeavg"
scalar Net5.rte[10].queue[3] qlen:timeavg 0.00034533501985125
attr interpolationmode sample-hold
attr title "queue length, timeavg"
scalar Net5.rte[10].queue[3] qlen:max 5
attr interpolationmode sample-hold
attr title "queue length, max"
[...]
field stddev 2.0249503088744
field min -1
field max 5
field sum 594
field sqrsum 2412
attr interpolationmode none
attr title "output interface for each routed packet, histogram"
bin	-inf	0
bin	-3	0
bin	-2	0
bin	-1	49
bin	0	58
bin	1	36
bin	2	59
bin	3	45
bin	4	21
bin	5	54
bin	6	0
bin	7	0
scalar Net5.rte[48].routing drop:count 0
attr interpolationmode none
attr title "dropped packet byte length, count"
attr unit bytes
scalar Net5.rte[48].routing drop:sum 0
attr interpolationmode none
attr title "dropped packet byte length, sum"
attr unit bytes
scalar Net5.rte[48].queue[0] rxBytes:count 6
attr interpolationmode none
attr title "received packet byte length, count"
attr unit bytes
scalar Net5.rte[48].queue[0] rxBytes:sum 9000
attr interpolationmode none
attr title "received packet byte length, sum"
attr unit bytes
statistic Net5.rte[48].queue[0] rxBytes:histogram
field count 6
field mean 1500
field stddev 0
field min 1500
field max 1500
field sum 9000
field sqrsum 13500000
attr interpolationmode none
attr title "received packet byte length, histogram"
attr unit bytes
bin	-inf	0
bin	1499	0
bin	1500	6
bin	1501	0
scalar Net5.rte[48].queue[0] txBytes:count 58
attr interpolationmode none
attr title "transmitting packet byte length, count"
attr unit bytes
scalar Net5.rte[48].queue[0] txBytes:sum 87000
attr interpolationmode none
attr title "transmitting packet byte length, sum"
attr unit bytes
statistic Net5.rte[48].queue[0] txBytes:histogram
field count 58
field mean 1500
field stddev 0
field min 1500
field max 1500
field sum 87000
field sqrsum 130500000
attr interpolationmode none
attr title "transmitting packet byte length, histogram"
attr unit bytes
bin	-inf	0
bin	1499	0
bin	1500	58
bin	1501	0
scalar Net5.rte[48].queue[0] busy:timeavg 0.0013352954100915
attr interpolationmode sample-hold
attr title "server busy state, timeavg"
scalar Net5.rte[48].queue[0] qlen:timeavg 0.000184178677254
attr interpolationmode sample-hold
attr title "queue length, timeavg"
scalar Net5.rte[48].queue[0] qlen:max 3
attr interpolationmode sample-hold
attr title "queue length, max"
scalar Net5.rte[48].queue[0] drop:count 0
attr interpolationmode none
attr title "dropped packet byte length, count"
attr unit bytes
scalar Net5.rte[48].queue[0] drop:sum 0
attr interpolationmode none
attr title "dropped packet byte length, sum"
attr unit bytes
scalar Net5.rte[48].queue[1] rxBytes:count 87
attr interpolationmode none
attr title "received packet byte length, count"
attr unit bytes
scalar Net5.rte[48].queue[1] rxBytes:sum 130500
attr interpolationmode none
attr title "received packet byte length, sum"
attr unit bytes
statistic Net5.rte[48].queue[1] rxBytes:histogram
field count 87
field mean 1500
field stddev 0
field min 1500
field max 1500
field sum 130500
field sqrsum 195750000
attr interpolationmode none
attr title "received packet byte length, histogram"
attr unit bytes
bin	-inf	0
bin	1499	0
bin	1500	87
bin	1501	0
scalar Net5.rte[48].queue[1] txBytes:count 36
attr interpolationmode none
attr title "transmitting packet byte length, count"
attr unit bytes
scalar Net5.rte[48].queue[1] txBytes:sum 54010
attr interpolationmode none
attr title "transmitting packet byte length, sum"
attr unit bytes
statistic Net5.rte[48].queue[1] txBytes:histogram
field count 36
field mean 1500.2777777778
field stddev 1.6666666666809
field min 1500
field max 1510
field sum 54010
field sqrsum 81030100
attr interpolationmode none
attr title "transmitting packet byte length, histogram"
attr unit bytes
bin	-inf	0
bin	1497	0
bin	1498	0
bin	1499	0
bin	1500	35
bin	1501	0
bin	1502	0
bin	1503	0
bin	1504	0
bin	1505	0
bin	1506	0
bin	1507	0
bin	1508	0
bin	1509	0
bin	1510	1
bin	1511	0
bin	1512	0
bin	1513	0
scalar Net5.rte[48].queue[1] busy:timeavg 0.0008289575299333
attr interpolationmode sample-hold
attr title "server busy state, timeavg"
scalar Net5.rte[48].queue[1] qlen:timeavg 0.0013583177447482
attr interpolationmode sample-hold
attr title "queue length, timeavg"
scalar Net5.rte[48].queue[1] qlen:max 10
attr interpolationmode sample-hold
attr title "queue length, max"
scalar Net5.rte[48].queue[1] drop:count 0
attr interpolationmode none
attr title "dropped packet byte length, count"
attr unit bytes
scalar Net5.rte[48].queue[1] drop:sum 0
attr interpolationmode none
attr title "dropped packet byte length, sum"
attr unit bytes
scalar Net5.rte[48].queue[2] rxBytes:count 34
attr interpolationmode none
attr title "received packet byte length, count"
attr unit bytes
scalar Net5.rte[48].queue[2] rxBytes:sum 51000
attr interpolationmode none
attr title "received packet byte length, sum"
attr unit bytes
statistic Net5.rte[48].queue[2] rxBytes:histogram
field count 34
field mean 1500
field stddev 0
field min 1500
field max 1500
field sum 51000
field sqrsum 76500000
attr interpolationmode none
attr title "received packet byte length, histogram"
attr unit bytes
bin	-inf	0
bin	1499	0
bin	1500	34
bin	1501	0
scalar Net5.rte[48].queue[2] txBytes:count 59
attr interpolationmode none
attr title "transmitting packet byte length, count"
attr unit bytes
scalar Net5.rte[48].queue[2] txBytes:sum 88500
attr interpolationmode none
attr title "transmitting packet byte length, sum"
attr unit bytes
statistic Net5.rte[48].queue[2] txBytes:histogram
field count 59
field mean 1500
field stddev 0
field min 1500
field max 1500
field sum 88500
field sqrsum 132750000
attr interpolationmode none
attr title "transmitting packet byte length, histogram"
attr unit bytes
bin	-inf	0
bin	1499	0
bin	1500	59
bin	1501	0
scalar Net5.rte[48].queue[2] busy:timeavg 0.0013583177447482
attr interpolationmode sample-hold
attr title "server busy state, timeavg"
scalar Net5.rte[48].queue[2] qlen:timeavg 0.0016806304299427
attr interpolationmode sample-hold
attr title "queue length, timeavg"
scalar Net5.rte[48].queue[2] qlen:max 11
attr interpolationmode sample-hold
attr title "queue length, max"
scalar Net5.rte[48].queue[2] drop:count 0
attr interpolationmode none
attr title "dropped packet byte length, count"
attr unit bytes
scalar Net5.rte[48].queue[2] drop:sum 0
attr interpolationmode none
attr title "dropped packet byte length, sum"
attr unit bytes
scalar Net5.rte[48].queue[3] rxBytes:count 53
attr interpolationmode none
attr title "received packet byte length, count"
attr unit bytes
scalar Net5.rte[48].queue[3] rxBytes:sum 79510
attr interpolationmode none
attr title "received packet byte length, sum"
attr unit bytes
statistic Net5.rte[48].queue[3] rxBytes:histogram
field count 53
field mean 1500.1886792453
field stddev 1.3736056394987
field min 1500
field max 1510
field sum 79510
field sqrsum 119280100
attr interpolationmode none
attr title "received packet byte length, histogram"
attr unit bytes
bin	-inf	0
bin	1499	0
bin	1500	52
bin	1501	0
bin	1502	0
bin	1503	0
bin	1504	0
bin	1505	0
bin	1506	0
bin	1507	0
bin	1508	0
bin	1509	0
bin	1510	1
bin	1511	0
scalar Net5.rte[48].queue[3] txBytes:count 45
attr interpolationmode none
attr title "transmitting packet byte length, count"
attr unit bytes
scalar Net5.rte[48].queue[3] txBytes:sum 67500
attr interpolationmode none
attr title "transmitting packet byte length, sum"
attr unit bytes
statistic Net5.rte[48].queue[3] txBytes:histogram
field count 45
field mean 1500
field stddev 0
field min 1500
field max 1500
field sum 67500
field sqrsum 101250000
attr interpolationmode none
attr title "transmitting packet byte length, histogram"
attr unit bytes
bin	-inf	0
bin	1499	0
bin	1500	45
bin	1501	0
scalar Net5.rte[48].queue[3] busy:timeavg 0.0010360050595537
attr interpolationmode sample-hold
attr title "server busy state, timeavg"
scalar Net5.rte[48].queue[3] qlen:timeavg 0.00066764770504574
attr interpolationmode sample-hold
attr title "queue length, timeavg"
scalar Net5.rte[48].queue[3] qlen:max 6
attr interpolationmode sample-hold
attr title "queue length, max"
scalar Net5.rte[48].queue[3] drop:count 0
attr interpolationmode none
attr title "dropped packet byte length, count"
attr unit bytes
scalar Net5.rte[48].queue[3] drop:sum 0
attr interpolationmode none
attr title "dropped packet byte length, sum"
attr unit bytes
scalar Net5.rte[48].queue[4] rxBytes:count 49
attr interpolationmode none
attr title "received packet byte length, count"
attr unit bytes
scalar Net5.rte[48].queue[4] rxBytes:sum 73500
attr interpolationmode none
attr title "received packet byte length, sum"
attr unit bytes
statistic Net5.rte[48].queue[4] rxBytes:histogram
field count 49
field mean 1500
field stddev 0
field min 1500
field max 1500
field sum 73500
field sqrsum 110250000
attr interpolationmode none
attr title "received packet byte length, histogram"
attr unit bytes
bin	-inf	0
bin	1499	0
bin	1500	49
bin	1501	0
scalar Net5.rte[48].queue[4] txBytes:count 21
attr interpolationmode none
attr title "transmitting packet byte length, count"
attr unit bytes
scalar Net5.rte[48].queue[4] txBytes:sum 31500
attr interpolationmode none
attr title "transmitting packet byte length, sum"
attr unit bytes
statistic Net5.rte[48].queue[4] txBytes:histogram
field count 21
field mean 1500
field stddev 0
field min 1500
field max 1500
field sum 31500
field sqrsum 47250000
attr interpolationmode none
attr title "transmitting packet byte length, histogram"
attr unit bytes
bin	-inf	0
bin	1499	0
bin	1500	21
bin	1501	0
scalar Net5.rte[48].queue[4] busy:timeavg 0.00048346902779174
attr interpolationmode sample-hold
attr title "server busy state, timeavg"
scalar Net5.rte[48].queue[4] qlen:timeavg 0.0015194740873455
attr interpolationmode sample-hold
attr title "queue length, timeavg"
scalar Net5.rte[48].queue[4] qlen:max 11
attr interpolationmode sample-hold
attr title "queue length, max"
scalar Net5.rte[48].queue[4] drop:count 0
attr interpolationmode none
attr title "dropped packet byte length, count"
attr unit bytes
scalar Net5.rte[48].queue[4] drop:sum 0
attr interpolationmode none
attr title "dropped packet byte length, sum"
attr unit bytes
scalar Net5.rte[48].queue[5] rxBytes:count 42
attr interpolationmode none
attr title "received packet byte length, count"
attr unit bytes
scalar Net5.rte[48].queue[5] rxBytes:sum 63000
attr interpolationmode none
attr title "received packet byte length, sum"
attr unit bytes
statistic Net5.rte[48].queue[5] rxBytes:histogram
field count 42
field mean 1500
field stddev 0
field min 1500
field max 1500
field sum 63000
field sqrsum 94500000
attr interpolationmode none
attr title "received packet byte length, histogram"
attr unit bytes
bin	-inf	0
bin	1499	0
bin	1500	42
bin	1501	0
scalar Net5.rte[48].queue[5] txBytes:count 54
attr interpolationmode none
attr title "transmitting packet byte length, count"
attr unit bytes
scalar Net5.rte[48].queue[5] txBytes:sum 81000
attr interpolationmode none
attr title "transmitting packet byte length, sum"
attr unit bytes
statistic Net5.rte[48].queue[5] txBytes:histogram
field count 54
field mean 1500
field stddev 0
field min 1500
field max 1500
field sum 81000
field sqrsum 121500000
attr interpolationmode none
attr title "transmitting packet byte length, histogram"
attr unit bytes
bin	-inf	0
bin	1499	0
bin	1500	54
bin	1501	0
scalar Net5.rte[48].queue[5] busy:timeavg 0.0012432060714645
attr interpolationmode sample-hold
attr title "server busy state, timeavg"
scalar Net5.rte[48].queue[5] qlen:timeavg 6.9067003970249e-005
attr interpolationmode sample-hold
attr title "queue length, timeavg"
scalar Net5.rte[48].queue[5] qlen:max 2
attr interpolationmode sample-hold
attr title "queue length, max"
scalar Net5.rte[48].queue[5] drop:count 0
attr interpolationmode none
attr title "dropped packet byte length, count"
attr unit bytes
scalar Net5.rte[48].queue[5] drop:sum 0
attr interpolationmode none
attr title "dropped packet byte length, sum"
attr unit bytes
scalar Net5.rte[49].app hopCount:mean 2.5208333333333
attr interpolationmode none
attr title "hop count of arrived packets, mean"
scalar Net5.rte[49].app hopCount:max 5
attr interpolationmode none
attr title "hop count of arrived packets, max"
scalar Net5.rte[49].app endToEndDelay:mean 0.10475128009063
attr interpolationmode none
attr title "end-to-end delay of arrived packets, mean"
attr unit s
scalar Net5.rte[49].app endToEndDelay:max 0.279107060728
attr interpolationmode none
attr title "end-to-end delay of arrived packets, max"
attr unit s
statistic Net5.rte[49].routing outputIf:histogram
field count 89
field mean 0.39325842696629
field stddev 1.6210124328507
field min -1
field max 3
field sum 35
field sqrsum 245
attr interpolationmode none
attr title "output interface for each routed packet, histogram"
bin	-inf	0
bin	-2	0
bin	-1	48
bin	0	0
bin	1	14
bin	2	12
bin	3	15
bin	4	0
scalar Net5.rte[49].routing drop:count 0
attr interpolationmode none
attr title "dropped packet byte length, count"
attr unit bytes
scalar Net5.rte[49].routing drop:sum 0
attr interpolationmode none
attr title "dropped packet byte length, sum"
attr unit bytes
scalar Net5.rte[49].queue[0] rxBytes:count 11
attr interpolationmode none
attr title "received packet byte length, count"
attr unit bytes
scalar Net5.rte[49].queue[0] rxBytes:sum 16500
attr interpolationmode none
attr title "received packet byte length, sum"
attr unit bytes
statistic Net5.rte[49].queue[0] rxBytes:histogram
field count 11
field mean 1500
field stddev 0
field min 1500
field max 1500
field sum 16500
field sqrsum 24750000
attr interpolationmode none
attr title "received packet byte length, histogram"
attr unit bytes
bin	-inf	0
bin	1499	0
bin	1500	11
bin	1501	0
scalar Net5.rte[49].queue[0] txBytes:count 0
attr interpolationmode none
attr title "transmitting packet byte length, count"
attr unit bytes
scalar Net5.rte[49].queue[0] txBytes:sum 0
attr interpolationmode none
attr title "transmitting packet byte length, sum"
attr unit bytes
statistic Net5.rte[49].queue[0] txBytes:histogram
field count 0
field mean nan
field stddev nan
field min nan
field max nan
field sum 0
field sqrsum 0
attr interpolationmode none
attr title "transmitting packet byte length, histogram"
attr unit bytes
bin	-inf	0
bin	0	0
bin	1	0
scalar Net5.rte[49].queue[0] busy:timeavg 0
attr interpolationmode sample-hold
attr title "server busy state, timeavg"
scalar Net5.rte[49].queue[0] qlen:timeavg 0
attr interpolationmode sample-hold
attr title "queue length, timeavg"
scalar Net5.rte[49].queue[0] qlen:max 0
attr interpolationmode sample-hold
attr title "queue length, max"
scalar Net5.rte[49].queue[0] drop:count 0
attr interpolationmode none
attr title "dropped packet byte length, count"
attr unit bytes
scalar Net5.rte[49].queue[0] drop:sum 0
attr interpolationmode none
attr title "dropped packet byte length, sum"
attr unit bytes
scalar Net5.rte[49].queue[1] rxBytes:count 41
attr interpolationmode none
attr title "received packet byte length, count"
attr unit bytes
scalar Net5.rte[49].queue[1] rxBytes:sum 61500
attr interpolationmode none
attr title "received packet byte length, sum"
attr unit bytes
statistic Net5.rte[49].queue[1] rxBytes:histogram
field count 41
field mean 1500
field stddev 0
field min 1500
field max 1500
field sum 61500
field sqrsum 92250000
attr interpolationmode none
attr title "received packet byte length, histogram"
attr unit bytes
bin	-inf	0
bin	1499	0
bin	1500	41
bin	1501	0
scalar Net5.rte[49].queue[1] txBytes:count 14
attr interpolationmode none
attr title "transmitting packet byte length, count"
attr unit bytes
scalar Net5.rte[49].queue[1] txBytes:sum 21000
attr interpolationmode none
attr title "transmitting packet byte length, sum"
attr unit bytes
statistic Net5.rte[49].queue[1] txBytes:histogram
field count 14
field mean 1500
field stddev 0
field min 1500
field max 1500
field sum 21000
field sqrsum 31500000
attr interpolationmode none
attr title "transmitting packet byte length, histogram"
attr unit bytes
bin	-inf	0
bin	1499	0
bin	1500	14
bin	1501	0
scalar Net5.rte[49].queue[1] busy:timeavg 0.0003223126851945
attr interpolationmode sample-hold
attr title "server busy state, timeavg"
scalar Net5.rte[49].queue[1] qlen:timeavg 0
attr interpolationmode sample-hold
attr title "queue length, timeavg"
scalar Net5.rte[49].queue[1] qlen:max 0
attr interpolationmode sample-hold
attr title "queue length, max"
scalar Net5.rte[49].queue[1] drop:count 0
attr interpolationmode none
attr title "dropped packet byte length, count"
attr unit bytes
scalar Net5.rte[49].queue[1] drop:sum 0
attr interpolationmode none
attr title "dropped packet byte length, sum"
attr unit bytes
scalar Net5.rte[49].queue[2] rxBytes:count 23
attr interpolationmode none
attr title "received packet byte length, count"
attr unit bytes
scalar Net5.rte[49].queue[2] rxBytes:sum 34500
attr interpolationmode none
attr title "received packet byte length, sum"
attr unit bytes
statistic Net5.rte[49].queue[2] rxBytes:histogram
field count 23
field mean 1500
field stddev 0
field min 1500
field max 1500
field sum 34500
field sqrsum 51750000
attr interpolationmode none
attr title "received packet byte length, histogram"
attr unit bytes
bin	-inf	0
bin	1499	0
bin	1500	23
bin	1501	0
scalar Net5.rte[49].queue[2] txBytes:count 12
attr interpolationmode none
attr title "transmitting packet byte length, count"
attr unit bytes
scalar Net5.rte[49].queue[2] txBytes:sum 18000
attr interpolationmode none
attr title "transmitting packet byte length, sum"
attr unit bytes
statistic Net5.rte[49].queue[2] txBytes:histogram
field count 12
field mean 1500
field stddev 0
field min 1500
field max 1500
field sum 18000
field sqrsum 27000000
attr interpolationmode none
attr title "transmitting packet byte length, histogram"
attr unit bytes
bin	-inf	0
bin	1499	0
bin	1500	12
bin	1501	0
scalar Net5.rte[49].queue[2] busy:timeavg 0.000276268015881
attr interpolationmode sample-hold
attr title "server busy state, timeavg"
scalar Net5.rte[49].queue[2] qlen:timeavg 0
attr interpolationmode sample-hold
attr title "queue length, timeavg"
scalar Net5.rte[49].queue[2] qlen:max 0
attr interpolationmode sample-hold
attr title "queue length, max"
scalar Net5.rte[49].queue[2] drop:count 0
attr interpolationmode none
attr title "dropped packet byte length, count"
attr unit bytes
scalar Net5.rte[49].queue[2] drop:sum 0
attr interpolationmode none
attr title "dropped packet byte length, sum"
attr unit bytes
scalar Net5.rte[49].queue[3] rxBytes:count 13
attr interpolationmode none
attr title "received packet byte length, count"
attr unit bytes
scalar Net5.rte[49].queue[3] rxBytes:sum 19500
attr interpolationmode none
attr title "received packet byte length, sum"
attr unit bytes
statistic Net5.rte[49].queue[3] rxBytes:histogram
field count 13
field mean 1500
field stddev 0
field min 1500
field max 1500
field sum 19500
field sqrsum 29250000
attr interpolationmode none
attr title "received packet byte length, histogram"
attr unit bytes
bin	-inf	0
bin	1499	0
bin	1500	13
bin	1501	0
scalar Net5.rte[49].queue[3] txBytes:count 15
attr interpolationmode none
attr title "transmitting packet byte length, count"
attr unit bytes
scalar Net5.rte[49].queue[3] txBytes:sum 22500
attr interpolationmode none
attr title "transmitting packet byte length, sum"
attr unit bytes
statistic Net5.rte[49].queue[3] txBytes:histogram
field count 15
field mean 1500
field stddev 0
field min 1500
field max 1500
field sum 22500
field sqrsum 33750000
attr interpolationmode none
attr title "transmitting packet byte length, histogram"
attr unit bytes
bin	-inf	0
bin	1499	0
bin	1500	15
bin	1501	0
scalar Net5.rte[49].queue[3] busy:timeavg 0.00034533501985125
attr interpolationmode sample-hold
attr title "server busy state, timeavg"
scalar Net5.rte[49].queue[3] qlen:timeavg 0
attr interpolationmode sample-hold
attr title "queue length, timeavg"
scalar Net5.rte[49].queue[3] qlen:max 0
attr interpolationmode sample-hold
attr title "queue length, max"
scalar Net5.rte[49].queue[3] drop:count 0
attr interpolationmode none
attr title "dropped packet byte length, count"
attr unit bytes
scalar Net5.rte[49].queue[3] drop:sum 0
attr interpolationmode none
attr title "dropped packet byte length, sum"
attr unit bytes

