version 2
run General-6-20190529-16:32:54-17944
attr configname General
attr datetime 20190529-16:32:54
attr experiment General
attr inifile omnetpp.ini
attr iterationvars ""
attr iterationvarsf ""
attr measurement ""
attr network networks.Net5
attr processid 17944
attr repetition 6
attr replication #6
attr resultdir results
attr runnumber 6
attr seedset 6
param **.appType "\"App\""
param **.app.packetLength "1500 bytes"
param **.app.totalNodes 3
param **.destAddresses "\"0\""
param **.sendIaTime "uniform(5s, 10s)"
param **.sendIaTimeEvil 10ms

vector 0 Net5.rte[1].app endToEndDelay:vector ETV
attr interpolationmode none
attr title "end-to-end delay of arrived packets, vector"
attr unit s
vector 1 Net5.rte[2].app endToEndDelay:vector ETV
attr interpolationmode none
attr title "end-to-end delay of arrived packets, vector"
attr unit s
vector 2 Net5.rte[0].app endToEndDelay:vector ETV
attr interpolationmode none
attr title "end-to-end delay of arrived packets, vector"
attr unit s
0	7	6.761565688864	0.101666666667
0	19	6.964899022198	0.101666666667
0	49	7.168232355532	0.101666666667
0	93	9.870967400193	0.101666666667
0	105	9.940713714309	0.101666666667
0	113	9.97263406686	0.101666666667
0	131	10.144058158754	0.101666666667
0	141	10.145724825421	0.103333333334
0	181	12.275082154499	0.101666666667
0	196	12.376748821166	0.101666666667
0	209	16.617752960151	0.101666666667
0	229	16.821108515707	0.101666666667
0	239	16.822775182374	0.103333333334
0	279	17.846261079955	0.101666666667
0	293	17.947927746622	0.101666666667
0	301	21.096095249156	0.101666666667
0	313	21.299484138045	0.101722222222
0	331	21.502817471379	0.101666666667
0	364	23.567630850444	0.101666666667
0	404	23.771008628222	0.101666666667
0	408	23.772675294889	0.103333333334
0	441	23.977630850444	0.101666666667
1	13	6.863232355531	0.101666666667
1	33	7.066565688865	0.101666666667
1	43	7.068232355532	0.103333333334
1	56	9.565967400192	0.101666666667
1	72	9.769300733526	0.101666666667
1	84	9.839047047642	0.101666666667
1	114	9.97263406686	0.101666666667
1	117	10.042391492087	0.101677777778
1	147	10.245724825421	0.101666666667
1	160	12.071715487832	0.101666666667
1	180	12.275082154499	0.101666666667
1	190	12.276748821166	0.103333333334
1	230	16.821108515707	0.101666666667
1	245	16.922775182374	0.101666666667
1	252	17.541227746621	0.101666666667
1	264	17.744594413288	0.1017
1	294	17.947927746622	0.101666666667
1	307	21.197761915823	0.101666666667
1	319	21.401150804712	0.101666666667
1	405	23.771008628222	0.101666666667
1	425	23.875964183777	0.101666666667
1	457	24.079341961555	0.101711111111
2	34	7.066565688865	0.101666666667
2	48	7.168232355532	0.101666666667
2	62	9.667634066859	0.101666666667
2	92	9.870967400193	0.101666666667
2	102	9.87263406686	0.103333333334
2	132	10.144058158754	0.101666666667
2	146	10.245724825421	0.101666666667
2	154	11.970048821165	0.101666666667
2	166	12.173415487832	0.1017
2	195	12.376748821166	0.101666666667
2	203	16.516086293484	0.101666666667
2	215	16.71944184904	0.101688888889
2	244	16.922775182374	0.101666666667
2	258	17.642894413288	0.101666666667
2	278	17.846261079955	0.101666666667
2	288	17.847927746622	0.103333333334
2	330	21.502817471379	0.101666666667
2	348	23.465964183777	0.101666666667
2	380	23.669341961555	0.101711111111

