version 2
run General-16-20190610-18:03:54-16492
attr configname General
attr datetime 20190610-18:03:54
attr experiment General
attr inifile omnetpp.ini
attr iterationvars ""
attr iterationvarsf ""
attr measurement ""
attr network networks.Net5
attr processid 16492
attr repetition 16
attr replication #16
attr resultdir results
attr runnumber 16
attr seedset 16
param **.appType "\"App\""
param **.app.packetLength "1500 bytes"
param **.app.totalNodes 10
param **.destAddresses "\"0\""
param **.sendIaTime "uniform(5s, 10s)"
param **.sendIaTimeEvil 10ms

vector 0 Net5.rte[8].app endToEndDelay:vector ETV
attr interpolationmode none
attr title "end-to-end delay of arrived packets, vector"
attr unit s
vector 1 Net5.rte[3].app endToEndDelay:vector ETV
attr interpolationmode none
attr title "end-to-end delay of arrived packets, vector"
attr unit s
vector 2 Net5.rte[0].app endToEndDelay:vector ETV
attr interpolationmode none
attr title "end-to-end delay of arrived packets, vector"
attr unit s
vector 3 Net5.rte[2].app endToEndDelay:vector ETV
attr interpolationmode none
attr title "end-to-end delay of arrived packets, vector"
attr unit s
vector 4 Net5.rte[1].app endToEndDelay:vector ETV
attr interpolationmode none
attr title "end-to-end delay of arrived packets, vector"
attr unit s
vector 5 Net5.rte[9].app endToEndDelay:vector ETV
attr interpolationmode none
attr title "end-to-end delay of arrived packets, vector"
attr unit s
vector 6 Net5.rte[5].app endToEndDelay:vector ETV
attr interpolationmode none
attr title "end-to-end delay of arrived packets, vector"
attr unit s
vector 7 Net5.rte[4].app endToEndDelay:vector ETV
attr interpolationmode none
attr title "end-to-end delay of arrived packets, vector"
attr unit s
vector 8 Net5.rte[6].app endToEndDelay:vector ETV
attr interpolationmode none
attr title "end-to-end delay of arrived packets, vector"
attr unit s
vector 9 Net5.rte[7].app endToEndDelay:vector ETV
attr interpolationmode none
attr title "end-to-end delay of arrived packets, vector"
attr unit s
0	15	5.380102096458	0.101666666667
0	37	5.583435429792	0.101666666667
0	177	5.79010209646	0.105000000001
0	397	6.359676416808	0.21666666667
0	511	6.510972886172	0.205000000001
0	700	6.764676416809	0.31666666667
0	719	6.825972886175	0.31666666667
0	749	7.006977519918	0.101666666667
0	827	7.258083930158	0.105000000001
0	951	7.563083930159	0.206666666668
0	965	7.7174834007	0.101666666667
0	1022	7.920827845145	0.101677777778
0	1195	8.069947459413	0.21666666667
0	1232	8.127494511813	0.105000000001
0	1426	8.464947459412	0.205000000001
0	1546	8.573529494799	0.210000000002
0	1611	8.771862828132	0.205000000001
0	1742	9.339009581319	0.206666666668
0	1811	9.54400958132	0.208333333335
0	2012	13.86960102021	0.206666666668
0	2052	13.96960102021	0.205000000001
0	2103	14.017985538512	0.203333333334
0	2207	14.183318331291	0.206666666668
0	2393	14.39498499796	0.31666666667
0	2433	14.424696649624	0.203333333334
0	2491	14.43802998296	0.21666666667
0	2623	14.626916980449	0.318333333337
0	2710	14.818583647114	0.205000000001
0	3025	15.727584281031	0.205000000001
0	3056	15.769653154723	0.206666666668
0	3071	15.779653154725	0.318333333337
0	3146	15.932584281032	0.105000000001
0	3306	17.171263472995	0.206666666668
0	3393	17.376263472996	0.208333333335
0	3433	19.379092444133	0.203333333334
0	3543	19.785825777467	0.203333333334
0	3574	19.789159110801	0.206666666668
0	3827	20.340777593386	0.105000000001
0	4014	20.542444260053	0.205000000001
0	4079	20.623725605849	0.105000000001
0	4093	20.626492334791	0.205000000001
0	4207	20.827058939183	0.206666666668
0	4312	21.04539227252	0.215000000003
0	4464	21.902634848388	0.21666666667
0	4592	22.307634848389	0.31666666667
0	4749	23.396251971421	0.206666666668
0	4846	23.601251971422	0.208333333335
0	4924	23.774117429655	0.106666666668
0	5005	23.975784096322	0.105000000001
0	5178	25.493883888491	0.206666666668
0	5207	25.593883888491	0.205000000001
0	5350	26.062286830035	0.205000000001
0	5393	26.163953496702	0.205000000001
0	5445	27.269126192832	0.203333333334
0	5528	27.675881748388	0.203333333334
0	5573	27.682548415056	0.210000000002
0	5812	28.686474851826	0.205000000001
0	6015	28.928935247821	0.208333333335
0	6040	29.001474851829	0.31666666667
0	6114	29.138935247823	0.215000000003
0	6200	29.444837491747	0.105000000001
0	6346	29.961504158417	0.31666666667
0	6510	32.472362238702	0.105000000001
0	6521	32.474028905369	0.208333333335
0	6646	33.036687149565	0.305000000001
0	6817	33.501984499051	0.105000000001
0	6938	33.646853816232	0.305000000001
0	6986	33.660187149568	0.318333333337
0	7028	33.749154181807	0.21666666667
0	7188	34.042487515139	0.205000000001
0	7405	34.714424873219	0.208333333335
0	7506	34.924424873221	0.215000000003
0	7630	35.188901969453	0.106666666668
0	7825	35.812537392227	0.105000000001
0	7980	36.117537392228	0.206666666668
1	25	5.481768763125	0.101666666667
1	76	5.685102096459	0.101666666667
1	114	5.688435429793	0.105000000001
1	310	6.249676416806	0.106666666668
1	518	6.512639552839	0.206666666668
1	635	6.656343083474	0.208333333335
1	664	6.71763955284	0.208333333335
1	872	7.358083930158	0.205000000001
1	916	7.459750596825	0.103333333334
1	1073	7.959947459411	0.106666666668
1	1132	8.024161178479	0.103333333334
1	1288	8.227494511813	0.205000000001
1	1444	8.466862828131	0.103333333334
1	1490	8.566614126079	0.306666666668
1	1610	8.771862828132	0.205000000001
1	1737	9.337342914652	0.205000000001
1	1772	9.439009581319	0.103333333334
1	1941	13.766267686876	0.103333333334
1	2051	13.96960102021	0.205000000001
1	2150	14.079984997957	0.103333333334
1	2292	14.286651664625	0.208333333335
1	2354	14.328029982958	0.106666666668
1	2513	14.518583647114	0.210000000002
1	2539	14.528029982958	0.103333333334
1	2738	14.920250313781	0.306666666668
1	2762	15.217550947696	0.305000000001
1	2973	15.666319821389	0.103333333334
1	3003	15.672986488057	0.211666666669
1	3077	15.827584281031	0.305000000001
1	3108	15.830917614365	0.308333333335
1	3343	17.271263472995	0.103333333334
1	3345	17.271263472995	0.306666666668
1	3619	19.889159110801	0.103333333334
1	3621	19.889159110801	0.306666666668
1	3771	20.31534782807	0.101666666667
1	3902	20.440777593386	0.205000000001
1	3933	20.518725605848	0.101711111111
1	4013	20.542444260053	0.205000000001
1	4148	20.723725605849	0.103333333334
1	4182	20.732058939184	0.310566604394
1	4258	20.935392272518	0.105000000001
1	4410	21.792634848386	0.106666666668
1	4566	22.199301515054	0.208333333335
1	4771	23.464050762987	0.203333333334
1	4792	23.496251971421	0.103333333334
1	4794	23.496251971421	0.306666666668
1	4929	23.870784096321	0.203333333334
1	4965	23.874117429655	0.206666666668
1	5123	25.390550555157	0.103333333334
1	5206	25.593883888491	0.205000000001
1	5349	26.062286830035	0.205000000001
1	5415	26.265620163369	0.306666666668
1	5499	27.575881748388	0.103333333334
1	5589	27.779215081722	0.103333333334
1	5819	28.688141518493	0.206666666668
1	5937	28.825601914487	0.105000000001
1	5965	28.893141518494	0.208333333335
1	6054	29.028935247821	0.105000000001
1	6220	29.544837491747	0.205000000001
1	6320	29.853170825082	0.208333333335
1	6503	32.470695572035	0.205000000001
1	6550	32.572362238702	0.205000000001
1	6587	32.677762354358	0.101666666667
1	6610	32.786851165716	0.305000000001
1	6721	33.39698449905	0.305000000001
1	6875	33.551853816233	0.210000000002
1	6920	33.639154181805	0.106666666668
1	7035	33.750187149566	0.103333333334
1	7187	34.042487515139	0.205000000001
1	7265	34.471935302783	0.305000000001
1	7346	34.611091539885	0.105000000001
1	7441	34.814424873219	0.105000000001
1	7548	35.082235302785	0.305300000001
1	7880	35.912537392227	0.205000000001
1	7934	36.014204058894	0.103333333334
2	31	5.533009750136	0.305000000001
2	155	5.786768763126	0.101666666667
2	169	5.788435429793	0.205000000001
2	261	6.143009750138	0.305000000001
2	584	6.612639552839	0.306666666668
2	691	6.75300975014	0.305000000001
2	710	6.814306219506	0.305000000001
2	752	7.039947459407	0.406666666668
2	905	7.458083930158	0.305000000001
2	944	7.559750596825	0.203333333334
2	985	7.853280792743	0.406666666668
2	1209	8.124161178479	0.203333333334
2	1343	8.327494511813	0.305000000001
2	1496	8.566862828131	0.203333333334
2	1556	8.666614126079	0.406666666668
2	1627	8.871862828132	0.305000000001
2	1763	9.437342914652	0.305000000001
2	1798	9.539009581319	0.203333333334
2	1976	13.814652205178	0.203333333334
2	1988	13.866267686876	0.203333333334
2	2109	14.06960102021	0.305000000001
2	2191	14.179984997957	0.203333333334
2	2241	14.22136331629	0.203377777778
2	2384	14.383318331291	0.305000000001
2	2607	14.61525031378	0.306666666668
2	2628	14.628029982958	0.203333333334
2	2751	15.020250313781	0.406666666668
2	3049	15.766319821389	0.203333333334
2	3067	15.772986488057	0.311666666669
2	3126	15.929250947698	0.101666666667
2	3140	15.930917614365	0.408333333335
2	3377	17.371263472995	0.406666666668
2	3381	17.372930139662	0.205000000001
2	3651	19.910921756012	0.305000000001
2	3667	19.989159110801	0.406666666668
2	3671	19.990825777468	0.205000000001
2	3695	20.01469233479	0.406666666668
2	4006	20.540777593386	0.305000000001
2	4039	20.620392272515	0.101666666667
2	4123	20.642444260053	0.305000000001
2	4200	20.823725605849	0.203333333334
2	4213	20.830392272517	0.408899937727
2	4235	20.832058939184	0.410566604394
2	4318	21.075868181717	0.305000000001
2	4365	21.685968181718	0.3051
2	4583	22.29596818172	0.305000000001
2	4830	23.596251971421	0.406666666668
2	4834	23.597918638088	0.205000000001
2	4983	23.972450762988	0.101666666667
2	4997	23.974117429655	0.306666666668
2	5154	25.490550555157	0.203333333334
2	5225	25.693883888491	0.305000000001
2	5385	26.162286830035	0.305000000001
2	5424	26.365620163369	0.406666666668
2	5529	27.675881748388	0.203333333334
2	5625	27.879215081722	0.203333333334
2	5732	28.517157470042	0.203333333334
2	5882	28.788141518493	0.306666666668
2	5984	28.92393524782	0.203333333334
2	6009	28.925601914487	0.205000000001
2	6031	28.98980818516	0.305000000001
2	6237	29.644837491747	0.305000000001
2	6337	29.949837491748	0.305000000001
2	6543	32.570695572035	0.305000000001
2	6578	32.672362238702	0.305000000001
2	6628	32.922187515135	0.305000000001
2	6800	33.498651165717	0.101666666667
2	6826	33.532487515137	0.305300000001
2	6965	33.648520482899	0.306666666668
2	7110	33.850187149566	0.203333333334
2	7206	34.142487515139	0.305000000001
2	7234	34.302602650996	0.203333333334
2	7374	34.709424873218	0.203333333334
2	7399	34.711091539885	0.205000000001
2	7605	35.183901969452	0.101666666667
2	7923	36.012537392227	0.305000000001
2	7972	36.114204058894	0.203333333334
3	106	5.686768763126	0.103333333334
3	218	5.89010209646	0.205000000001
3	409	6.407639552838	0.101666666667
3	467	6.451343083473	0.308333333335
3	685	6.746417263489	0.203333333334
3	697	6.756343083474	0.308333333335
3	716	6.81763955284	0.308333333335
3	733	6.905310853251	0.101666666667
3	766	7.153083930157	0.203333333334
3	948	7.561417263492	0.205000000001
3	979	7.819150067367	0.101666666667
3	1102	8.022494511812	0.101666666667
3	1140	8.025827845146	0.105000000001
3	1269	8.161614126078	0.308333333335
3	1355	8.361614126078	0.101666666667
3	1453	8.468529494798	0.105000000001
3	1565	8.668529494798	0.101666666667
3	1686	9.235676247985	0.103333333334
3	1773	9.439009581319	0.103333333334
3	1991	13.866267686876	0.101666666667
3	2021	13.871267686877	0.208333333335
3	2200	14.181651664624	0.205000000001
3	2381	14.359890760821	0.101666666667
3	2390	14.386651664625	0.308333333335
3	2540	14.528029982958	0.103333333334
3	2571	14.534696649626	0.313333333336
3	2617	14.618583647114	0.310000000002
3	2662	14.71525031378	0.101666666667
3	2922	15.624250947697	0.101666666667
3	3053	15.767986488056	0.205000000001
3	3068	15.772986488057	0.311666666669
3	3162	16.032584281032	0.205000000001
3	3245	17.067930139661	0.103333333334
3	3344	17.271263472995	0.103333333334
3	3505	19.685825777467	0.103333333334
3	3620	19.889159110801	0.103333333334
3	3701	20.032399815607	0.101666666667
3	3738	20.235777593385	0.101711111111
3	3891	20.439110926719	0.101666666667
3	3965	20.523159001457	0.101666666667
3	4150	20.723725605849	0.205000000001
3	4204	20.825392272516	0.205000000001
3	4328	21.137058939185	0.306666666668
3	4497	21.994301515053	0.308333333335
3	4589	22.299301515054	0.308333333335
3	4667	23.260717429653	0.203333333334
3	4683	23.292918638087	0.103333333334
3	4793	23.496251971421	0.103333333334
3	4854	23.667450762987	0.2034
3	5025	24.075784096322	0.205000000001
3	5157	25.490550555157	0.101666666667
3	5187	25.495550555158	0.208333333335
3	5273	25.958953496701	0.101666666667
3	5336	26.060620163368	0.101666666667
3	5505	27.577548415055	0.105000000001
3	5590	27.779215081722	0.103333333334
3	5748	28.583141518492	0.101666666667
3	5869	28.729770825078	0.305000000001
3	6010	28.925601914487	0.205000000001
3	6037	28.993141518494	0.308333333335
3	6124	29.230601914488	0.306666666668
3	6143	29.339837491746	0.305066666667
3	6343	29.953170825082	0.308333333335
3	6362	32.163973349812	0.101666666667
3	6413	32.367362238701	0.101666666667
3	6443	32.369028905368	0.103333333334
3	6899	33.601984499051	0.205000000001
3	6980	33.651853816233	0.310000000002
3	7036	33.750187149566	0.103333333334
3	7092	33.840820848472	0.308333333335
3	7141	33.939154181805	0.101666666667
3	7400	34.711091539885	0.205000000001
3	7529	35.016091539886	0.306666666668
3	7662	35.288901969453	0.206666666668
3	7670	35.30069294778	0.203333333334
3	7754	35.707537392226	0.203511111112
3	7976	36.115870725561	0.205000000001
4	154	5.786768763126	0.203333333334
4	243	5.99010209646	0.305000000001
4	408	6.407639552838	0.101666666667
4	546	6.551343083473	0.408333333335
4	694	6.754676416807	0.306666666668
4	713	6.815972886173	0.306666666668
4	811	7.254750596824	0.101666666667
4	891	7.446614126075	0.406666666668
4	945	7.559750596825	0.203333333334
4	1211	8.124161178479	0.101666666667
4	1223	8.125827845146	0.205000000001
4	1306	8.259947459411	0.406666666668
4	1329	8.261614126078	0.408333333335
4	1520	8.568529494798	0.205000000001
4	1564	8.668529494798	0.101666666667
4	1679	9.234009581318	0.101666666667
4	1799	9.539009581319	0.203333333334
4	1990	13.866267686876	0.101666666667
4	2001	13.867934353543	0.205000000001
4	2097	14.003550313778	0.305000000001
4	2192	14.179984997957	0.203333333334
4	2274	14.258224094154	0.101666666667
4	2387	14.384984997958	0.306666666668
4	2584	14.613583647113	0.305000000001
4	2612	14.616916980447	0.308333333335
4	2629	14.628029982958	0.203333333334
4	2651	14.634696649626	0.413333333336
4	2728	14.912550947695	0.305000000001
4	2821	15.52258428103	0.305033333334
4	3050	15.766319821389	0.203333333334
4	3062	15.77131982139	0.310000000002
4	3171	16.132584281032	0.305000000001
4	3182	16.557885695215	0.203333333334
4	3202	16.964596806327	0.203377777778
4	3378	17.371263472995	0.203333333334
4	3415	19.175759110799	0.203333333334
4	3452	19.582492444133	0.2034
4	3489	19.608025668122	0.406666666668
4	3668	19.989159110801	0.203333333334
4	3789	20.337444260052	0.101666666667
4	3849	20.42149233479	0.4068
4	3890	20.439110926719	0.101666666667
4	4199	20.823725605849	0.305000000001
4	4201	20.823725605849	0.203333333334
4	4344	21.237058939185	0.406666666668
4	4523	22.094301515053	0.408333333335
4	4586	22.297634848387	0.306666666668
4	4606	22.782851971419	0.203333333334
4	4634	23.189585304753	0.2034
4	4831	23.596251971421	0.203333333334
4	4900	23.769117429654	0.101666666667
4	5034	24.175784096322	0.305000000001
4	5156	25.490550555157	0.101666666667
4	5167	25.492217221824	0.205000000001
4	5228	25.75554238559	0.101666666667
4	5271	25.958953496701	0.101666666667
4	5301	25.960620163368	0.103333333334
4	5552	27.677548415055	0.205000000001
4	5626	27.879215081722	0.203333333334
4	5747	28.583141518492	0.101666666667
4	5985	28.92393524782	0.203333333334
4	6034	28.991474851827	0.306666666668
4	6140	29.330601914488	0.406666666668
4	6184	29.441504158413	0.101666666667
4	6340	29.951504158415	0.306666666668
4	6415	32.367362238701	0.101666666667
4	6490	32.469028905368	0.101666666667
4	6531	32.481851165715	0.305000000001
4	6652	33.091984499049	0.305133333333
4	6974	33.650187149566	0.308333333335
4	6992	33.701984499051	0.305000000001
4	7111	33.850187149566	0.203333333334
4	7140	33.939154181805	0.101666666667
4	7151	33.940820848472	0.408333333335
4	7375	34.709424873218	0.203333333334
4	7424	34.776935302784	0.305000000001
4	7588	35.116091539886	0.406666666668
4	7685	35.387235302786	0.305000000001
4	7688	35.388901969453	0.306666666668
4	7809	35.809204058893	0.101666666667
4	7909	36.006935302784	0.305000000001
4	7973	36.114204058894	0.203333333334
5	158	5.786768763126	0.101666666667
5	186	5.791768763127	0.208333333335
5	400	6.361343083475	0.218333333337
5	519	6.512639552839	0.206666666668
5	703	6.766343083476	0.318333333337
5	722	6.827639552842	0.318333333337
5	812	7.254750596824	0.101666666667
5	954	7.564750596826	0.208333333335
5	1062	7.956840605907	0.203333333334
5	1198	8.07161412608	0.218333333337
5	1213	8.124161178479	0.101666666667
5	1251	8.130827845147	0.210000000002
5	1365	8.363529494797	0.203355555556
5	1436	8.466614126079	0.206666666668
5	1614	8.773529494799	0.206666666668
5	1630	8.928987359095	0.203333333334
5	1712	9.335676247985	0.203333333334
5	1749	9.340676247986	0.208333333335
5	2022	13.871267686877	0.208333333335
5	2055	13.971267686877	0.206666666668
5	2214	14.184984997958	0.208333333335
5	2396	14.396651664627	0.318333333337
5	2494	14.439696649627	0.218333333337
5	2632	14.628583647116	0.320000000004
5	2644	14.633029982959	0.208333333335
5	2714	14.820250313781	0.206666666668
5	3032	15.729250947698	0.206666666668
5	3061	15.77131982139	0.208333333335
5	3074	15.781319821392	0.320000000004
5	3129	15.929250947698	0.101666666667
5	3192	16.761219028549	0.203333333334
5	3275	17.167930139661	0.203333333334
5	3313	17.172930139662	0.208333333335
5	3581	19.790825777468	0.208333333335
5	3683	19.994159110802	0.208333333335
5	3790	20.337444260052	0.101666666667
5	4017	20.54411092672	0.206666666668
5	4041	20.620392272515	0.101666666667
5	4105	20.628159001458	0.206666666668
5	4210	20.82872560585	0.208333333335
5	4315	21.047058939187	0.21666666667
5	4467	21.904301515055	0.218333333337
5	4595	22.309301515056	0.318333333337
5	4616	22.986185304753	0.203333333334
5	4718	23.392918638087	0.203333333334
5	4756	23.397918638088	0.208333333335
5	4902	23.769117429654	0.101666666667
5	4986	23.972450762988	0.101666666667
5	5188	25.495550555158	0.208333333335
5	5210	25.595550555158	0.206666666668
5	5361	26.063953496702	0.206666666668
5	5397	26.165620163369	0.206666666668
5	5435	27.065792859498	0.203333333334
5	5455	27.472548415054	0.203422222222
5	5638	27.884215081723	0.208333333335
5	5820	28.688141518493	0.206666666668
5	6019	28.930601914488	0.210000000002
5	6043	29.003141518496	0.318333333337
5	6117	29.14060191449	0.21666666667
5	6185	29.441504158413	0.101666666667
5	6349	29.963170825084	0.318333333337
5	6492	32.469028905368	0.101666666667
5	6523	32.474028905369	0.208333333335
5	6607	32.779429021025	0.101666666667
5	6803	33.498651165717	0.101666666667
5	6989	33.661853816235	0.320000000004
5	7039	33.750820848474	0.218333333337
5	7123	33.855187149567	0.208333333335
5	7191	34.044154181806	0.206666666668
5	7409	34.716091539886	0.210000000002
5	7509	34.926091539888	0.21666666667
5	7607	35.183901969452	0.101666666667
5	7810	35.809204058893	0.101666666667
5	7983	36.119204058895	0.208333333335
6	168	5.788435429793	0.103333333334
6	190	5.793435429794	0.210000000002
6	386	6.354676416807	0.211666666669
6	429	6.412639552839	0.106666666668
6	562	6.558009750141	0.110000000002
6	600	6.619306219507	0.110000000002
6	743	6.949750596823	0.203333333334
6	845	7.356417263491	0.203333333334
6	877	7.359750596825	0.206666666668
6	1184	8.064947459412	0.211666666669
6	1234	8.127494511813	0.206666666668
6	1289	8.227494511813	0.205000000001
6	1447	8.468280792746	0.208333333335
6	1525	8.570196161465	0.206666666668
6	1579	8.671862828132	0.105000000001
6	1694	9.237342914652	0.105000000001
6	1804	9.542342914653	0.206666666668
6	1833	13.459567686875	0.101666666667
6	1857	13.662934353542	0.1017
6	1966	13.773307220178	0.101666666667
6	2010	13.86960102021	0.105000000001
6	2064	13.976651664623	0.101677777778
6	2222	14.188318331292	0.110000000002
6	2423	14.420250313781	0.111666666669
6	2479	14.433029982959	0.211666666669
6	2637	14.631363316292	0.206666666668
6	2717	14.821916980448	0.208333333335
6	2778	15.359619821388	0.101666666667
6	2854	15.562986488055	0.101666666667
6	2904	15.572986488057	0.111666666669
6	3036	15.732584281032	0.210000000002
6	3139	15.930917614365	0.103333333334
6	3314	17.172930139662	0.208333333335
6	3386	17.374596806329	0.206666666668
6	3582	19.790825777468	0.208333333335
6	3676	19.992492444135	0.206666666668
6	3843	20.417014494737	0.101666666667
6	3909	20.442444260053	0.105000000001
6	3922	20.447444260054	0.211666666669
6	4038	20.620392272515	0.101666666667
6	4078	20.623725605849	0.105000000001
6	4111	20.631492334792	0.210000000002
6	4301	21.040392272519	0.210000000002
6	4453	21.897634848387	0.211666666669
6	4539	22.100968181721	0.110000000002
6	4757	23.397918638088	0.208333333335
6	4839	23.599585304755	0.206666666668
6	4957	23.872450762988	0.205000000001
6	4996	23.974117429655	0.103333333334
6	5041	25.083828332934	0.101666666667
6	5053	25.287217221823	0.101722222222
6	5176	25.493883888491	0.105000000001
6	5312	25.962286830035	0.105000000001
6	5400	26.167286830036	0.208333333335
6	5557	27.679215081722	0.206666666668
6	5631	27.882548415056	0.206666666668
6	5680	28.313824136708	0.203333333334
6	5768	28.588141518493	0.106666666668
6	5836	28.720601914486	0.203444444444
6	5898	28.794808185161	0.110000000002
6	6099	29.133935247822	0.210000000002
6	6223	29.546504158414	0.206666666668
6	6293	29.754837491749	0.110000000002
6	6453	32.370695572035	0.105000000001
6	6551	32.572362238702	0.205000000001
6	6779	33.4535204829	0.111666666669
6	6811	33.500317832384	0.103333333334
6	7011	33.744154181806	0.211666666669
6	7116	33.8535204829	0.206666666668
6	7158	33.942487515139	0.105000000001
6	7200	34.099269317662	0.203333333334
6	7274	34.506091539884	0.203488888888
6	7495	34.91942487322	0.210000000002
6	7615	35.185568636119	0.103333333334
6	7713	35.504026281114	0.203333333334
6	7853	35.91087072556	0.203333333334
6	7885	35.914204058894	0.206666666668
7	179	5.79010209646	0.206666666668
7	214	5.888435429793	0.203333333334
7	233	5.899306219503	0.203333333334
7	337	6.305972886171	0.203333333334
7	472	6.454676416807	0.311666666669
7	638	6.658009750141	0.210000000002
7	667	6.719306219507	0.210000000002
7	819	7.256417263491	0.103333333334
7	924	7.461417263492	0.105000000001
7	1212	8.124161178479	0.101666666667
7	1250	8.130827845147	0.210000000002
7	1263	8.160173939241	0.203333333334
7	1273	8.164947459412	0.311666666669
7	1392	8.364947459412	0.105000000001
7	1495	8.566862828131	0.203333333334
7	1535	8.571862828132	0.208333333335
7	1598	8.725654025761	0.203333333334
7	1640	9.132342914651	0.203355555556
7	1805	9.542342914653	0.206666666668
7	1843	13.561234353542	0.101666666667
7	1910	13.764601020209	0.101666666667
7	1958	13.76960102021	0.106666666668
7	2159	14.081651664624	0.105000000001
7	2295	14.288318331292	0.210000000002
7	2516	14.520250313781	0.211666666669
7	2566	14.533029982959	0.311666666669
7	2638	14.631363316292	0.206666666668
7	2676	14.718583647114	0.105000000001
7	2942	15.629250947698	0.106666666668
7	2981	15.667986488056	0.105000000001
7	3004	15.672986488057	0.211666666669
7	3158	16.030917614365	0.203333333334
7	3253	17.069596806328	0.105000000001
7	3387	17.374596806329	0.206666666668
7	3513	19.687492444134	0.105000000001
7	3677	19.992492444135	0.206666666668
7	3721	20.134066482274	0.101666666667
7	3787	20.337444260052	0.101666666667
7	3817	20.339110926719	0.103333333334
7	3989	20.528159001458	0.106666666668
7	4157	20.725392272516	0.105000000001
7	4166	20.727058939183	0.208333333335
7	4331	21.140392272519	0.310000000002
7	4502	21.997634848387	0.311666666669
7	4569	22.200968181721	0.210000000002
7	4691	23.294585304754	0.105000000001
7	4840	23.599585304755	0.206666666668
7	4901	23.769117429654	0.101666666667
7	5021	24.074117429655	0.203333333334
7	5047	25.185494999601	0.101666666667
7	5092	25.38888388849	0.101666666667
7	5140	25.393883888491	0.106666666668
7	5219	25.653875718923	0.101666666667
7	5234	25.857286830034	0.101744444444
7	5359	26.063953496702	0.105000000001
7	5564	27.680881748389	0.208333333335
7	5632	27.882548415056	0.206666666668
7	5656	28.074719296269	0.203333333334
7	5699	28.481474851825	0.203422222222
7	5938	28.825601914487	0.105000000001
7	5968	28.894808185161	0.210000000002
7	6127	29.233935247822	0.310000000002
7	6192	29.44317082508	0.103333333334
7	6323	29.854837491749	0.210000000002
7	6356	32.062306683145	0.101666666667
7	6372	32.265695572034	0.101722222222
7	6491	32.469028905368	0.101666666667
7	6670	33.227187515136	0.305000000001
7	6878	33.5535204829	0.211666666669
7	6895	33.600317832384	0.203333333334
7	7062	33.837487515138	0.305000000001
7	7098	33.844154181806	0.311666666669
7	7117	33.8535204829	0.206666666668
7	7347	34.611091539885	0.105000000001
7	7533	35.01942487322	0.310000000002
7	7651	35.285568636119	0.203333333334
7	7817	35.81087072556	0.103333333334
7	7942	36.015870725561	0.105000000001
8	205	5.838009750137	0.305000000001
8	221	5.891768763127	0.206666666668
8	227	5.896768763128	0.313333333336
8	440	6.448009750139	0.305000000001
8	477	6.458009750141	0.315000000003
8	524	6.515972886173	0.210000000002
8	670	6.722639552841	0.213333333336
8	908	7.458083930158	0.101666666667
8	931	7.463083930159	0.310000000002
8	1276	8.168280792746	0.315000000003
8	1299	8.230827845147	0.310000000002
8	1346	8.330827845147	0.308333333335
8	1528	8.57161412608	0.311666666669
8	1587	8.673529494799	0.310000000002
8	1617	8.775196161466	0.208333333335
8	1750	9.340676247986	0.208333333335
8	1819	9.645676247987	0.310000000002
8	1912	13.764601020209	0.101666666667
8	2030	13.874973886845	0.101666666667
8	2058	13.972934353544	0.208333333335
8	2118	14.07831833129	0.101666666667
8	2149	14.079984997957	0.103333333334
8	2519	14.523583647115	0.215000000003
8	2574	14.536363316293	0.315000000003
8	2693	14.734696649626	0.310000000002
8	2741	14.925250313782	0.311666666669
8	2768	15.257953154721	0.101666666667
8	2788	15.461319821388	0.1017
8	2965	15.664653154722	0.101666666667
8	3114	15.835917614366	0.313333333336
8	3165	16.034250947699	0.206666666668
8	3368	17.276263472996	0.311666666669
8	3401	17.477930139663	0.310000000002
8	3644	19.894159110802	0.311666666669
8	3707	20.095825777469	0.310000000002
8	4020	20.545777593387	0.208333333335
8	4026	20.550777593388	0.315000000003
8	4137	20.722058939182	0.101666666667
8	4167	20.727058939183	0.208333333335
8	4185	20.734825668126	0.313333333336
8	4334	21.143725605853	0.313333333336
8	4351	21.380868181718	0.305000000001
8	4470	21.990968181719	0.305000000001
8	4507	22.000968181721	0.315000000003
8	4817	23.501251971422	0.311666666669
8	4887	23.702918638089	0.310000000002
8	5007	23.975784096322	0.308333333335
8	5028	24.077450762989	0.206666666668
8	5094	25.38888388849	0.101666666667
8	5213	25.597217221825	0.208333333335
8	5368	26.065620163369	0.208333333335
8	5418	26.27062016337	0.311666666669
8	5607	27.782548415056	0.310000000002
8	5650	27.98588174839	0.310000000002
8	5674	28.278052629603	0.203333333334
8	5787	28.684808185159	0.203333333334
8	5825	28.691474851827	0.210000000002
8	5921	28.822268581153	0.101666666667
8	6130	29.237268581156	0.313333333336
8	6261	29.649837491748	0.310000000002
8	6326	29.858170825083	0.213333333336
8	6524	32.474028905369	0.208333333335
8	6581	32.675695572036	0.308333333335
8	6881	33.556853816234	0.215000000003
8	6902	33.603651165718	0.206666666668
8	7102	33.84748751514	0.315000000003
8	7171	33.956853816234	0.310000000002
8	7194	34.045820848473	0.208333333335
8	7330	34.607758206551	0.101666666667
8	7536	35.022758206554	0.313333333336
8	7663	35.288901969453	0.206666666668
8	7926	36.012537392227	0.101666666667
8	7950	36.017537392228	0.310000000002
9	224	5.893435429794	0.208333333335
9	230	5.898435429795	0.315000000003
9	254	6.102639552837	0.203333333334
9	481	6.459676416808	0.31666666667
9	486	6.509306219505	0.203333333334
9	528	6.51763955284	0.211666666669
9	641	6.661343083475	0.213333333336
9	909	7.458083930158	0.101666666667
9	935	7.464750596826	0.311666666669
9	1279	8.169947459413	0.31666666667
9	1303	8.232494511814	0.311666666669
9	1349	8.332494511814	0.310000000002
9	1539	8.573280792747	0.313333333336
9	1594	8.675196161466	0.311666666669
9	1620	8.776862828133	0.210000000002
9	1755	9.342342914653	0.210000000002
9	1822	9.647342914654	0.311666666669
9	1894	13.698550313777	0.305000000001
9	1913	13.764601020209	0.101666666667
9	2061	13.974601020211	0.210000000002
9	2121	14.07831833129	0.101666666667
9	2298	14.291651664626	0.213333333336
9	2309	14.308583647112	0.305033333334
9	2577	14.53802998296	0.31666666667
9	2696	14.736363316293	0.311666666669
9	2744	14.926916980449	0.313333333336
9	2966	15.664653154722	0.101666666667
9	3007	15.676319821391	0.215000000003
9	3117	15.837584281033	0.315000000003
9	3168	16.035917614366	0.208333333335
9	3372	17.277930139663	0.313333333336
9	3404	17.47959680633	0.311666666669
9	3648	19.895825777469	0.313333333336
9	3710	20.097492444136	0.311666666669
9	3731	20.215921756013	0.305000000001
9	4023	20.547444260054	0.210000000002
9	4029	20.552444260055	0.31666666667
9	4138	20.722058939182	0.101666666667
9	4174	20.72872560585	0.210000000002
9	4188	20.736492334793	0.315000000003
9	4337	21.14539227252	0.315000000003
9	4511	22.002634848388	0.31666666667
9	4572	22.204301515055	0.213333333336
9	4821	23.502918638089	0.313333333336
9	4890	23.704585304756	0.311666666669
9	5014	23.977450762989	0.310000000002
9	5031	24.079117429656	0.208333333335
9	5095	25.38888388849	0.101666666667
9	5216	25.598883888492	0.210000000002
9	5375	26.067286830036	0.210000000002
9	5421	26.272286830037	0.313333333336
9	5615	27.784215081723	0.311666666669
9	5653	27.987548415057	0.311666666669
9	5829	28.693141518494	0.211666666669
9	5922	28.822268581153	0.101666666667
9	5971	28.898141518495	0.213333333336
9	6068	29.034770825079	0.305000000001
9	6136	29.238935247823	0.315000000003
9	6236	29.644837491747	0.305000000001
9	6265	29.651504158415	0.311666666669
9	6528	32.475695572036	0.210000000002
9	6584	32.677362238703	0.310000000002
9	6601	32.731687149564	0.305000000001
9	6688	33.341853816231	0.305166666666
9	6905	33.605317832385	0.208333333335
9	7105	33.849154181807	0.31666666667
9	7174	33.958520482901	0.311666666669
9	7197	34.04748751514	0.210000000002
9	7331	34.607758206551	0.101666666667
9	7539	35.024424873221	0.315000000003
9	7666	35.29056863612	0.208333333335
9	7747	35.701935302783	0.305000000001
9	7927	36.012537392227	0.101666666667
9	7954	36.019204058895	0.311666666669
9	8009	36.312235302785	0.305300000001

