version 2
run General-3-20190517-16:52:51-17476
attr configname General
attr datetime 20190517-16:52:51
attr experiment General
attr inifile omnetpp.ini
attr iterationvars ""
attr iterationvarsf ""
attr measurement ""
attr network networks.Net5
attr processid 17476
attr repetition 3
attr replication #3
attr resultdir results
attr runnumber 3
attr seedset 3
param **.appType "\"App\""
param **.app.packetLength "4096 bytes"
param **.app.totalNodes 5
param **.destAddresses "\"0\""
param **.sendIaTime "uniform(5s, 10s)"
param **.sendIaTimeEvil "uniform(1ms, 10ms)"

vector 0 Net5.rte[2].app endToEndDelay:vector ETV
attr interpolationmode none
attr title "end-to-end delay of arrived packets, vector"
attr unit s
vector 1 Net5.rte[1].app endToEndDelay:vector ETV
attr interpolationmode none
attr title "end-to-end delay of arrived packets, vector"
attr unit s
vector 2 Net5.rte[4].app endToEndDelay:vector ETV
attr interpolationmode none
attr title "end-to-end delay of arrived packets, vector"
attr unit s
vector 3 Net5.rte[0].app endToEndDelay:vector ETV
attr interpolationmode none
attr title "end-to-end delay of arrived packets, vector"
attr unit s
vector 4 Net5.rte[3].app endToEndDelay:vector ETV
attr interpolationmode none
attr title "end-to-end delay of arrived packets, vector"
attr unit s
0	7	6.221258490104	0.143373428136
0	20	6.558911033301	0.143373428136
0	75	6.896563576498	0.143373428136
0	86	7.002831621911	0.233306257404
0	113	7.542752412622	0.233306257404
0	180	8.151873817168	0.302506871239
0	206	8.537932774567	0.292212516584
0	239	9.132144490198	0.292212516584
0	309	9.820111011818	0.385967322573
0	334	12.05226662651	0.233306257404
0	374	12.592187417221	0.233306257404
0	395	12.730588644891	0.371707485074
0	468	13.732147527282	0.098778361581
0	519	14.133967635125	0.302506871239
0	614	16.627346727378	0.098778361581
0	636	16.764639246359	0.479722128562
0	652	17.003622372218	0.292212516584
0	672	17.597834087849	0.292212516584
0	742	18.285800609469	0.385967322573
0	824	19.871765867799	0.385967322573
0	831	19.92584352962	0.325820254316
0	848	20.751572188558	0.143373428136
0	881	21.089224731755	0.143373428136
0	892	21.143302393576	0.197451089957
0	927	23.998577152893	0.292212516584
0	947	24.592788868524	0.292212516584
0	1024	25.280755390144	0.385967322573
0	1148	26.032935390095	0.098778361581
0	1180	26.121119524768	0.371707485074
0	1202	26.180861238424	0.143373428136
0	1217	26.259520752438	0.410340570243
0	1228	26.368370850402	0.479722128562
0	1269	26.799441543149	0.233306257404
0	1290	26.937842770819	0.371707485074
0	1393	32.102732031363	0.098778361581
0	1404	32.158289884296	0.098778361581
0	1423	32.295582403277	0.479722128562
0	1490	33.226708941448	0.098778361581
0	1545	33.707374166365	0.385967322573
0	1618	34.385710718609	0.143373428136
0	1626	34.524111946279	0.371707485074
0	1712	37.477138893059	0.098778361581
0	1737	37.61443141204	0.479722128562
0	1748	37.69319441529	0.143373428136
0	1781	38.030846958487	0.143373428136
0	1792	38.084924620308	0.197451089957
0	1870	39.807625802304	0.143373428136
1	14	6.415537605165	0.194279115061
1	38	6.753190148362	0.194279115061
1	79	6.962487686122	0.403576652821
1	154	7.939299775197	0.089932829268
1	157	7.946329065443	0.403576652821
1	280	9.535721143019	0.403576652821
1	290	9.582982777693	0.148839088448
1	367	12.51801460292	0.159133443103
1	407	12.891115301162	0.298927883941
1	477	13.80246455402	0.169095388319
1	500	13.921393593154	0.089932829268
1	544	15.824960665267	0.085756179939
1	590	16.527511012234	0.242593894437
1	619	16.655994149926	0.127425784129
1	713	18.00141074067	0.403576652821
1	723	18.048672375344	0.148839088448
1	791	19.634637633674	0.148839088448
1	801	19.689956104572	0.089932829268
1	842	20.608198760422	0.194279115061
1	854	20.945851303619	0.194279115061
1	905	21.388152615696	0.298927883941
1	988	24.996365521345	0.403576652821
1	998	25.043627156019	0.148839088448
1	1082	25.780928637854	0.148839088448
1	1116	25.908545482797	0.159133443103
1	1151	26.037487810288	0.148839088448
1	1167	26.061582812643	0.127425784129
1	1187	26.131242616277	0.242593894437
1	1262	26.725268728848	0.159133443103
1	1302	27.09836942709	0.298927883941
1	1377	32.058454169152	0.242593894437
1	1409	32.186937306844	0.127425784129
1	1500	33.297025968186	0.169095388319
1	1533	33.47024593224	0.148839088448
1	1562	34.040069042959	0.089932829268
1	1583	34.242337290473	0.089932829268
1	1600	34.311537904308	0.159133443103
1	1687	37.377303177915	0.242593894437
1	1717	37.505786315607	0.127425784129
1	1725	37.549820987154	0.194279115061
1	1754	37.887473530351	0.194279115061
1	1805	38.329774842428	0.298927883941
1	1823	39.407693201734	0.148839088448
1	1835	39.664252374168	0.148839088448
1	1881	39.920811546602	0.148839088448
2	34	6.643469668882	0.084558635581
2	57	6.848002307914	0.094812159552
2	127	7.627311048203	0.084558635581
2	187	8.172513162419	0.32314621649
2	226	8.818402029085	0.243651248
2	253	9.216703125779	0.084558635581
2	313	9.865304549223	0.431160859978
2	391	12.676746052802	0.084558635581
2	399	12.751227990142	0.392346830325
2	429	13.250532578696	0.18474498882
2	449	13.633369165701	0.18474498882
2	523	14.154606980376	0.32314621649
2	534	15.739204485328	0.094812159552
2	557	16.091440853872	0.243651248
2	593	16.528568365797	0.243651248
2	642	16.809832783764	0.524915665967
2	686	17.68239272343	0.084558635581
2	746	18.330994146874	0.431160859978
2	828	19.916959405204	0.431160859978
2	835	20.006615358632	0.406592083328
2	870	21.040663463171	0.094812159552
2	896	21.173783367336	0.084558635581
2	961	24.677347504105	0.084558635581
2	1028	25.325948927549	0.431160859978
2	1048	25.551320441509	0.18474498882
2	1120	25.934157028514	0.18474498882
2	1190	26.13229996984	0.094812159552
2	1206	26.221955923268	0.472543883574
2	1232	26.413564387807	0.524915665967
2	1286	26.88400017873	0.084558635581
2	1294	26.95848211607	0.392346830325
2	1334	31.62238401079	0.243651248
2	1370	32.003953669782	0.084558635581
2	1380	32.059511522715	0.243651248
2	1428	32.340775940682	0.524915665967
2	1442	32.690803067942	0.243651248
2	1465	33.127930579867	0.243651248
2	1549	33.75256770377	0.431160859978
2	1604	34.337149450025	0.094812159552
2	1630	34.54475129153	0.392346830325
2	1651	36.941233019553	0.243651248
2	1690	37.378360531478	0.243651248
2	1742	37.659624949445	0.524915665967
2	1770	37.982285689903	0.094812159552
2	1796	38.115405594068	0.084558635581
2	1852	39.75906453372	0.094812159552
3	67	6.860910232348	0.107720083986
3	82	6.965559001228	0.406647967927
3	160	7.947365347907	0.097998401978
3	163	7.949400380549	0.406647967927
3	211	8.574750781085	0.193476263925
3	229	8.839931973614	0.301999199047
3	265	9.434143689245	0.301999199047
3	283	9.538792458125	0.406647967927
3	362	12.456879561795	0.097998401978
3	410	12.894186616268	0.301999199047
3	495	13.868515033816	0.235145868115
3	503	13.929459165864	0.097998401978
3	547	15.847789605872	0.193476263925
3	567	16.284917117797	0.193476263925
3	633	16.722044629722	0.193476263925
3	662	17.305621571265	0.301999199047
3	698	17.899833286896	0.301999199047
3	716	18.004482055776	0.406647967927
3	753	19.27357541317	0.097998401978
3	765	19.485798545226	0.097998401978
3	804	19.698021677282	0.097998401978
3	874	21.053571387605	0.107720083986
3	908	21.391223930802	0.301999199047
3	937	24.30057635194	0.301999199047
3	973	24.894788067571	0.301999199047
3	991	24.999436836451	0.406647967927
3	1055	25.632089549406	0.107720083986
3	1094	25.847410441672	0.097998401978
3	1103	25.88864872184	0.107720083986
3	1184	26.127633292439	0.193476263925
3	1197	26.164535675685	0.127047865397
3	1257	26.664133687723	0.097998401978
3	1305	27.101440742196	0.301999199047
3	1324	31.37873276279	0.193476263925
3	1344	31.815860274715	0.193476263925
3	1420	32.25298778664	0.193476263925
3	1452	32.884279331867	0.193476263925
3	1482	33.212792472112	0.097998401978
3	1504	33.321406843792	0.193476263925
3	1521	33.363076447982	0.235145868115
3	1594	34.250402863183	0.097998401978
3	1608	34.350057374459	0.107720083986
3	1641	36.697581771553	0.193476263925
3	1661	37.134709283478	0.193476263925
3	1733	37.571836795403	0.193476263925
3	1774	37.995193614337	0.107720083986
3	1808	38.332846157534	0.301999199047
3	1829	39.51541328572	0.107720083986
3	1856	39.771972458154	0.107720083986
3	1873	39.8088748414	0.144622467232
4	70	6.865525566608	0.112335418246
4	96	7.179471873248	0.620560839947
4	103	7.309446155218	0.306614533307
4	139	7.849366945929	0.306614533307
4	183	8.163313252569	0.620560839947
4	286	9.548368419323	0.114224730078
4	303	9.752705330145	0.620560839947
4	324	11.818960369106	0.306614533307
4	344	12.358881159817	0.306614533307
4	421	13.108099488288	0.515912071067
4	439	13.448624176881	0.198091598185
4	481	13.831460763886	0.198091598185
4	507	13.956469576456	0.323100410755
4	582	16.399141847875	0.114224730078
4	645	16.809999172362	0.281430806565
4	719	18.014058016974	0.114224730078
4	736	18.218394927796	0.620560839947
4	759	19.387800143248	0.114224730078
4	780	19.600023275304	0.114224730078
4	798	19.68515044007	0.199351894844
4	878	21.058186721865	0.112335418246
4	916	21.605136802822	0.515912071067
4	994	25.009012797649	0.114224730078
4	1015	25.213349708471	0.620560839947
4	1032	25.366575452689	0.198091598185
4	1069	25.749412039694	0.198091598185
4	1097	25.849180182195	0.31967269395
4	1139	26.002873451918	0.114224730078
4	1194	26.149823228534	0.112335418246
4	1214	26.249591371035	0.315434342521
4	1239	26.566135285745	0.306614533307
4	1313	27.315353614216	0.515912071067
4	1362	31.930085004793	0.114224730078
4	1431	32.34094232928	0.281430806565
4	1515	33.32701720219	0.114224730078
4	1526	33.43563157387	0.114224730078
4	1530	33.451030990622	0.323100410755
4	1556	33.950136213691	0.112335418246
4	1568	34.152404461205	0.112335418246
4	1611	34.354672708719	0.112335418246
4	1676	37.248934013556	0.114224730078
4	1745	37.659791338043	0.281430806565
4	1778	37.999808948597	0.112335418246
4	1816	38.546759029554	0.515912071067
4	1867	39.776587792414	0.112335418246
4	1878	39.886197188232	0.114224730078
0	1893	40.157939780727	0.385967322573
0	1975	42.544714039184	0.385967322573
0	1982	42.598791701005	0.325820254316
0	2032	43.253770821003	0.098778361581
0	2063	43.384122067497	0.143373428136
0	2145	44.345139487027	0.098778361581
0	2164	44.482432006008	0.479722128562
0	2240	45.346055878846	0.098778361581
0	2248	45.3962098657	0.292212516584
0	2294	45.826721103763	0.385967322573
0	2313	48.601015796312	0.098778361581
0	2318	48.679306615494	0.233306257404
0	2331	48.784352793474	0.098778361581
0	2370	48.967689790636	0.098778361581
0	2429	50.676766053898	0.233306257404
0	2469	51.216686844609	0.233306257404
0	2493	51.355088072279	0.371707485074
0	2559	51.74473007203	0.098778361581
0	2587	51.875081318524	0.143373428136
0	2652	54.462674195681	0.098778361581
0	2714	55.024810520176	0.098778361581
0	2765	55.505475745093	0.385967322573
0	2790	56.16106055573	0.292212516584
0	2827	56.755272271361	0.292212516584
0	2851	56.942781883339	0.479722128562
0	3030	59.728409025751	0.371707485074
0	3043	59.821244822096	0.098778361581
1	1942	42.307585805059	0.148839088448
1	1952	42.362904275957	0.089932829268
1	1999	43.06018029987	0.085756179939
1	2021	43.240748639361	0.085756179939
1	2043	43.324087847741	0.169095388319
1	2121	44.245303771883	0.242593894437
1	2150	44.373786909575	0.127425784129
1	2253	45.416372905584	0.169095388319
1	2282	45.589592869638	0.148839088448
1	2383	48.996337213184	0.127425784129
1	2393	49.083280677415	0.298927883941
1	2462	51.142514030308	0.159133443103
1	2512	51.51561472855	0.298927883941
1	2519	51.551139550897	0.085756179939
1	2545	51.731707890388	0.085756179939
1	2570	51.815047098768	0.169095388319
1	2601	54.088515335057	0.085756179939
1	2617	54.269083674548	0.085756179939
1	2658	54.491321618229	0.127425784129
1	2724	55.095127546914	0.169095388319
1	2753	55.268347510968	0.148839088448
1	2823	56.705653649214	0.242593894437
1	2863	57.054200155302	0.298927883941
1	2920	59.244366122431	0.089932829268
1	2982	59.446634369945	0.089932829268
1	2992	59.51583498378	0.159133443103
1	3006	59.627654300963	0.085756179939
1	3037	59.808222640454	0.085756179939
1	3052	59.891561848834	0.169095388319
2	1897	40.203133318132	0.431160859978
2	1979	42.589907576589	0.431160859978
2	1986	42.679563530017	0.406592083328
2	1993	42.974424119931	0.094812159552
2	2005	43.154992459422	0.094812159552
2	2047	43.335560798913	0.094812159552
2	2088	43.809233613521	0.243651248
2	2124	44.246361125446	0.243651248
2	2169	44.527625543413	0.524915665967
2	2186	44.81015000534	0.243651248
2	2217	45.247277517265	0.243651248
2	2298	45.871914641168	0.431160859978
2	2324	48.685574431893	0.084558635581
2	2345	48.868911429055	0.084558635581
2	2363	48.950472742139	0.166119948665
2	2486	51.30124548019	0.084558635581
2	2497	51.37572741753	0.392346830325
2	2506	51.465383370958	0.128383862173
2	2528	51.645951710449	0.094812159552
2	2574	51.82652004994	0.094812159552
2	2610	54.183327494609	0.094812159552
2	2626	54.3638958341	0.094812159552
2	2647	54.453551787528	0.296902918135
2	2695	54.926032158595	0.243651248
2	2769	55.550669282498	0.431160859978
2	2843	56.839830906942	0.084558635581
2	2860	56.987975420744	0.524915665967
2	2996	59.541898121024	0.094812159552
2	3017	59.722466460515	0.094812159552
2	3040	59.812122413943	0.455420873266
3	1904	41.946523584555	0.097998401978
3	1916	42.158746716611	0.097998401978
3	1955	42.370969848667	0.097998401978
3	2051	43.348468723347	0.107720083986
3	2066	43.390138327537	0.235145868115
3	2078	43.565582365521	0.193476263925
3	2098	44.002709877446	0.193476263925
3	2161	44.439837389371	0.193476263925
3	2200	45.003626269265	0.193476263925
3	2207	45.103997349116	0.301999199047
3	2256	45.44075378119	0.193476263925
3	2270	45.48242338538	0.235145868115
3	2390	49.06238769298	0.193476263925
3	2397	49.099290076226	0.314937282752
3	2457	51.081378989183	0.097998401978
3	2515	51.518686043656	0.301999199047
3	2578	51.839427974374	0.107720083986
3	2590	51.881097578564	0.235145868115
3	2665	54.538878886159	0.097998401978
3	2670	54.557372098025	0.193476263925
3	2685	54.682380910595	0.228829123067
3	2727	55.11950842252	0.193476263925
3	2741	55.16117802671	0.235145868115
3	2780	55.868848039146	0.301999199047
3	2800	56.463059754777	0.301999199047
3	2866	57.057271470408	0.301999199047
3	2988	59.454699942655	0.097998401978
3	3058	59.95761232863	0.235145868115
4	1910	42.060748314633	0.114224730078
4	1931	42.272971446689	0.114224730078
4	1949	42.358098611455	0.199351894844
4	2054	43.353084057607	0.112335418246
4	2074	43.478092870177	0.323100410755
4	2113	44.116934607524	0.114224730078
4	2172	44.527791932011	0.281430806565
4	2275	45.554978511268	0.114224730078
4	2279	45.57037792802	0.323100410755
4	2377	48.985921148801	0.306614533307
4	2401	49.15034223562	0.281430806565
4	2408	49.300264864541	0.515912071067
4	2419	50.443459796494	0.306614533307
4	2439	50.983380587205	0.306614533307
4	2556	51.732598915676	0.515912071067
4	2581	51.844043308634	0.112335418246
4	2594	51.969052121204	0.323100410755
4	2679	54.645326640665	0.281430806565
4	2682	54.653103616237	0.114224730078
4	2746	55.233733152598	0.114224730078
4	2750	55.24913256935	0.323100410755
4	2815	56.577284484855	0.114224730078
4	2874	57.271184342428	0.515912071067
4	2898	59.154433293163	0.112335418246
4	2950	59.356701540677	0.112335418246
4	3062	60.04556687127	0.323100410755

