version 2
run General-34-20190529-16:33:05-18652
attr configname General
attr datetime 20190529-16:33:05
attr experiment General
attr inifile omnetpp.ini
attr iterationvars ""
attr iterationvarsf ""
attr measurement ""
attr network networks.Net5
attr processid 18652
attr repetition 34
attr replication #34
attr resultdir results
attr runnumber 34
attr seedset 34
param **.appType "\"App\""
param **.app.packetLength "1500 bytes"
param **.app.totalNodes 3
param **.destAddresses "\"0\""
param **.sendIaTime "uniform(5s, 10s)"
param **.sendIaTimeEvil 10ms

vector 0 Net5.rte[2].app endToEndDelay:vector ETV
attr interpolationmode none
attr title "end-to-end delay of arrived packets, vector"
attr unit s
vector 1 Net5.rte[0].app endToEndDelay:vector ETV
attr interpolationmode none
attr title "end-to-end delay of arrived packets, vector"
attr unit s
vector 2 Net5.rte[1].app endToEndDelay:vector ETV
attr interpolationmode none
attr title "end-to-end delay of arrived packets, vector"
attr unit s
0	7	5.294475064945	0.101666666667
0	19	5.497808398279	0.101666666667
0	49	5.701141731613	0.101666666667
0	56	6.080485940545	0.101666666667
0	68	6.283819273879	0.101666666667
0	98	6.487152607213	0.101666666667
0	111	9.103835631827	0.101666666667
0	131	9.307191187383	0.101666666667
0	141	9.30885785405	0.103333333334
0	155	14.886108042772	0.101666666667
0	167	15.089463598328	0.101688888889
0	197	15.292796931662	0.101666666667
0	210	16.145536217805	0.101666666667
0	230	16.348913995583	0.101666666667
0	240	16.35058066225	0.103333333334
0	283	18.741066790153	0.101666666667
0	357	23.929138896322	0.101666666667
0	377	24.034094451877	0.101666666667
0	409	24.237472229655	0.101711111111
1	13	5.396141731612	0.101666666667
1	33	5.599475064946	0.101666666667
1	43	5.601141731613	0.103333333334
1	83	6.385485940546	0.101666666667
1	97	6.487152607213	0.101666666667
1	132	9.307191187383	0.101666666667
1	146	9.40885785405	0.101666666667
1	182	15.191130264995	0.101666666667
1	196	15.292796931662	0.101666666667
1	204	16.043869551138	0.101666666667
1	216	16.247247328916	0.101711111111
1	245	16.45058066225	0.101666666667
1	259	18.43604456793	0.101666666667
1	271	18.639400123486	0.101666666667
1	300	23.624094451877	0.101666666667
1	332	23.827472229655	0.101711111111
2	34	5.599475064946	0.101666666667
2	48	5.701141731613	0.101666666667
2	62	6.182152607212	0.101666666667
2	82	6.385485940546	0.101666666667
2	92	6.387152607213	0.103333333334
2	105	9.00216896516	0.101666666667
2	117	9.205524520716	0.101688888889
2	147	9.40885785405	0.101666666667
2	161	14.987774709439	0.101666666667
2	181	15.191130264995	0.101666666667
2	191	15.192796931662	0.103333333334
2	231	16.348913995583	0.101666666667
2	246	16.45058066225	0.101666666667
2	253	18.334377901263	0.101666666667
2	265	18.537733456819	0.101688888889
2	282	18.741066790153	0.101666666667
2	316	23.725761118544	0.101666666667
2	356	23.929138896322	0.101666666667
2	360	23.930805562989	0.103333333334
2	393	24.135761118544	0.101666666667

