version 2
run General-0-20190517-15:42:24-15896
attr configname General
attr datetime 20190517-15:42:24
attr experiment General
attr inifile omnetpp.ini
attr iterationvars ""
attr iterationvarsf ""
attr measurement ""
attr network networks.Net5
attr processid 15896
attr repetition 0
attr replication #0
attr resultdir results
attr runnumber 0
attr seedset 0
param **.appType "\"App\""
param **.app.packetLength "4096 bytes"
param **.app.totalNodes 4
param **.destAddresses "\"0 1 2 3 4 5 6 7 8 9\""
param **.sendIaTime "uniform(5s, 10s)"
param **.sendIaTimeEvil "uniform(1ms, 10ms)"

vector 0 Net5.rte[0].app endToEndDelay:vector ETV
attr interpolationmode none
attr title "end-to-end delay of arrived packets, vector"
attr unit s
vector 1 Net5.rte[3].app endToEndDelay:vector ETV
attr interpolationmode none
attr title "end-to-end delay of arrived packets, vector"
attr unit s
vector 2 Net5.rte[1].app endToEndDelay:vector ETV
attr interpolationmode none
attr title "end-to-end delay of arrived packets, vector"
attr unit s
vector 3 Net5.rte[2].app endToEndDelay:vector ETV
attr interpolationmode none
attr title "end-to-end delay of arrived packets, vector"
attr unit s
0	7	5.374748904919	0.091184026291
0	19	5.562599411033	0.091184026291
0	54	5.750449917147	0.091184026291
0	129	7.014048020676	0.108299017055
0	143	7.087602485578	0.304028386611
0	175	7.605988850381	0.230473921709
0	208	8.024041650876	0.230473921709
0	222	8.081623602962	0.288055873795
0	294	15.216009374777	0.091184026291
0	313	15.403859880891	0.091184026291
0	324	15.440551038275	0.127875183675
0	539	16.278222657091	0.127875183675
0	573	16.453881104677	0.108299017055
0	592	16.6628959165	0.108299017055
0	603	18.869732774636	0.230473921709
0	623	19.287785575131	0.230473921709
1	13	5.471415384742	0.096666479823
1	34	5.659265890856	0.096666479823
1	46	5.695652061275	0.133052650242
1	147	7.14749173295	0.241742729329
1	158	7.283460356757	0.49988625779
1	229	8.120708130699	0.096666479823
1	247	8.293453986957	0.49988625779
1	281	12.597637803167	0.204965496878
1	288	15.124825348486	0.096666479823
1	300	15.3126758546	0.096666479823
1	333	15.500526360714	0.096666479823
1	406	15.753482155479	0.204965496878
1	496	16.150347473416	0.204965496878
2	43	5.663315205801	0.100715794768
2	70	5.887856869299	0.228590978443
2	90	6.696711014949	0.122174904654
2	109	6.905749003621	0.122174904654
2	133	7.020912907793	0.237338808826
2	217	8.030906537993	0.237338808826
2	232	8.124757445644	0.100715794768
2	254	9.581039913437	0.122174904654
2	271	12.392672306289	0.191899821059
2	336	15.504575675659	0.100715794768
2	358	15.596235541005	0.283559686405
2	450	15.945381976538	0.191899821059
2	558	16.342247294475	0.191899821059
2	570	16.415629609243	0.265282135827
2	586	16.554596899445	0.100715794768
3	62	5.796008222492	0.233408811459
3	77	6.02054988599	0.361283995134
3	84	6.574536110295	0.086863084018
3	96	6.783574098967	0.086863084018
3	125	6.992612087639	0.086863084018
3	165	7.375514928672	0.187578878786
3	185	7.793567729167	0.187578878786
3	244	8.257450462335	0.233408811459
3	260	9.667902997455	0.086863084018
3	367	15.63726869235	0.233408811459
3	397	15.728928557696	0.416252703096
3	583	16.548322625934	0.397975152518
3	613	19.057311653422	0.187578878786

