version 2
run General-46-20190610-18:04:06-6360
attr configname General
attr datetime 20190610-18:04:06
attr experiment General
attr inifile omnetpp.ini
attr iterationvars ""
attr iterationvarsf ""
attr measurement ""
attr network networks.Net5
attr processid 6360
attr repetition 46
attr replication #46
attr resultdir results
attr runnumber 46
attr seedset 46
param **.appType "\"App\""
param **.app.packetLength "1500 bytes"
param **.app.totalNodes 10
param **.destAddresses "\"0\""
param **.sendIaTime "uniform(5s, 10s)"
param **.sendIaTimeEvil 10ms

vector 0 Net5.rte[0].app endToEndDelay:vector ETV
attr interpolationmode none
attr title "end-to-end delay of arrived packets, vector"
attr unit s
vector 1 Net5.rte[8].app endToEndDelay:vector ETV
attr interpolationmode none
attr title "end-to-end delay of arrived packets, vector"
attr unit s
vector 2 Net5.rte[7].app endToEndDelay:vector ETV
attr interpolationmode none
attr title "end-to-end delay of arrived packets, vector"
attr unit s
vector 3 Net5.rte[4].app endToEndDelay:vector ETV
attr interpolationmode none
attr title "end-to-end delay of arrived packets, vector"
attr unit s
vector 4 Net5.rte[1].app endToEndDelay:vector ETV
attr interpolationmode none
attr title "end-to-end delay of arrived packets, vector"
attr unit s
vector 5 Net5.rte[3].app endToEndDelay:vector ETV
attr interpolationmode none
attr title "end-to-end delay of arrived packets, vector"
attr unit s
vector 6 Net5.rte[2].app endToEndDelay:vector ETV
attr interpolationmode none
attr title "end-to-end delay of arrived packets, vector"
attr unit s
vector 7 Net5.rte[5].app endToEndDelay:vector ETV
attr interpolationmode none
attr title "end-to-end delay of arrived packets, vector"
attr unit s
vector 8 Net5.rte[9].app endToEndDelay:vector ETV
attr interpolationmode none
attr title "end-to-end delay of arrived packets, vector"
attr unit s
vector 9 Net5.rte[6].app endToEndDelay:vector ETV
attr interpolationmode none
attr title "end-to-end delay of arrived packets, vector"
attr unit s
0	23	6.329670241169	0.305000000001
0	134	6.939670241171	0.305000000001
0	247	7.058548787009	0.203333333334
0	472	7.36354878701	0.305000000001
0	504	7.549670241173	0.305000000001
0	682	8.929419839322	0.101666666667
0	696	8.931086505989	0.205000000001
0	905	9.395835180759	0.306666666668
0	961	9.529161778178	0.305000000001
0	990	9.699168514093	0.305000000001
0	1142	10.401699478098	0.205000000001
0	1244	10.603366144765	0.203333333334
0	1399	10.965098287976	0.406666666668
0	1403	10.966764954643	0.205000000001
0	1544	11.74734193692	0.203333333334
0	1619	11.950675270254	0.305000000001
0	1749	13.520526298155	0.305000000001
0	1887	13.729360310927	0.406666666668
0	1891	13.731026977594	0.205000000001
0	2046	13.988408418139	0.203333333334
0	2125	14.13055963149	0.305033333334
0	2164	14.191741751473	0.305000000001
0	2459	14.740559631492	0.305000000001
0	2485	14.786987054655	0.306666666668
0	2587	15.191987054656	0.406666666668
0	2733	15.954437854134	0.101666666667
0	2747	15.956104520801	0.306666666668
0	2795	16.348041192828	0.203333333334
0	2815	16.754730081718	0.203355555556
0	3002	17.161396748386	0.203333333334
0	3084	17.56187076504	0.101666666667
0	3192	17.765204098374	0.203333333334
0	3245	18.539702000694	0.305000000001
0	3412	18.887981398929	0.203333333334
0	3555	19.091314732263	0.305000000001
0	3603	19.149802000695	0.305000000001
0	3625	19.151468667362	0.306666666668
0	3649	19.237040330524	0.101666666667
0	3892	19.643706997192	0.305000000001
0	3973	20.032743109956	0.101666666667
0	4252	20.350038991577	0.305000000001
0	4284	20.439409776624	0.305000000001
0	4300	20.553372324911	0.406666666668
0	4311	22.176769663779	0.203333333334
0	4367	22.583547441557	0.203444444444
0	4708	22.990214108225	0.203333333334
0	4842	23.121638684402	0.101666666667
0	4856	23.123305351069	0.306666666668
0	4879	23.18638832325	0.305000000001
0	4930	23.288054989917	0.203333333334
0	5030	25.067330787725	0.101666666667
0	5243	25.312363024037	0.203333333334
0	5340	25.473997454393	0.305000000001
0	5359	25.515696357371	0.305000000001
0	5549	26.702793576083	0.306666666668
0	5615	26.90446024275	0.203333333334
0	5685	27.237508651001	0.305000000001
0	5901	27.834302995423	0.203333333334
0	5943	27.847675317668	0.305000000001
0	5965	27.849341984335	0.306666666668
0	6250	28.240969662091	0.406666666668
0	6319	28.417103195929	0.203333333334
0	6337	28.423769862597	0.311666666669
0	6530	32.069745271436	0.101666666667
0	6544	32.071411938103	0.306666666668
0	6741	32.620445529931	0.305000000001
0	6782	32.722112196598	0.203333333334
0	6885	33.057915600584	0.203333333334
0	6997	33.362915600585	0.305000000001
0	7173	33.739822778121	0.305000000001
0	7228	33.943156111455	0.406666666668
0	7476	34.619248894008	0.408333333335
0	7539	34.709138261519	0.305000000001
0	7614	34.807590797672	0.205000000001
0	7635	34.820915560675	0.305000000001
0	7692	34.955591169485	0.305000000001
0	7700	35.009257464339	0.203333333334
0	7843	35.319338261519	0.305000000001
0	7865	35.321004928186	0.306666666668
0	8186	36.848230008033	0.205000000001
0	8298	36.987818798056	0.305000000001
0	8368	37.089485464723	0.203333333334
0	8410	37.253230008034	0.305000000001
0	8654	39.511690530362	0.406666666668
0	8657	39.513357197029	0.306666666668
0	8766	39.964085106706	0.203333333334
0	8938	40.429749938332	0.101666666667
0	8952	40.431416604999	0.306666666668
0	9227	41.804156478236	0.203333333334
1	41	6.448548787007	0.203333333334
1	98	6.855215453675	0.203333333334
1	324	7.156336907841	0.21666666667
1	422	7.26354878701	0.205000000001
1	513	7.561336907842	0.31666666667
1	541	8.522753172654	0.101666666667
1	561	8.726086505988	0.101666666667
1	704	8.932753172656	0.105000000001
1	919	9.407501847428	0.318333333337
1	952	9.499168514093	0.105000000001
1	999	9.790032811429	0.203333333334
1	1033	10.196699478097	0.203333333334
1	1251	10.606699478099	0.206666666668
1	1328	10.765098287976	0.206666666668
1	1415	10.970098287977	0.208333333335
1	1560	11.750675270254	0.206666666668
1	1628	11.962341936923	0.31666666667
1	1652	13.119293644259	0.203333333334
1	1757	13.526026977593	0.203333333334
1	1788	13.529360310927	0.206666666668
1	1814	13.58173064036	0.101666666667
1	1915	13.785075084805	0.101677777778
1	2069	13.991741751473	0.105000000001
1	2243	14.34722629816	0.21666666667
1	2414	14.640559631492	0.205000000001
1	2501	14.798653721324	0.318333333337
1	2548	14.990320387989	0.205000000001
1	2674	15.756104520801	0.106666666668
1	2755	15.957771187468	0.105000000001
1	2940	16.971396748388	0.21666666667
1	3018	17.166396748387	0.208333333335
1	3124	17.565204098374	0.105000000001
1	3199	17.768537431708	0.206666666668
1	3428	18.891314732263	0.206666666668
1	3495	18.951468667362	0.106666666668
1	3564	19.102981398932	0.31666666667
1	3667	19.240373663858	0.105000000001
1	3786	19.364802000698	0.215000000003
1	3901	19.655373663861	0.31666666667
1	3991	20.03607644329	0.105000000001
1	4129	20.150038991577	0.105000000001
1	4238	20.339409776624	0.205000000001
1	4260	20.351705658244	0.205000000001
1	4337	22.380102997113	0.203333333334
1	4459	22.786880774891	0.203333333334
1	4512	22.800214108227	0.21666666667
1	4695	22.98638832325	0.105000000001
1	4761	23.021638684402	0.205000000001
1	4862	23.124972017736	0.105000000001
1	4937	23.291388323251	0.206666666668
1	5054	25.072330787726	0.106666666668
1	5226	25.273997454393	0.105000000001
1	5259	25.315696357371	0.206666666668
1	5368	25.52736302404	0.31666666667
1	5565	26.714460242752	0.318333333337
1	5628	26.909460242751	0.208333333335
1	5703	27.411334402559	0.203333333334
1	5932	27.837636328757	0.206666666668
1	5981	27.861008651004	0.318333333337
1	6076	28.039302995424	0.205000000001
1	6117	28.062675317671	0.215000000003
1	6326	28.420436529263	0.206666666668
1	6341	28.430436529265	0.318333333337
1	6552	32.07307860477	0.105000000001
1	6565	32.083078604772	0.318333333337
1	6716	32.522112196598	0.206666666668
1	6795	32.727112196599	0.208333333335
1	6918	33.061248933918	0.206666666668
1	6954	33.162915600585	0.105000000001
1	7095	33.539822778121	0.105000000001
1	7181	33.741489444788	0.205000000001
1	7340	34.399124131005	0.203333333334
1	7359	34.415915560674	0.205000000001
1	7588	34.805924131005	0.203333333334
1	7625	34.810924131006	0.208333333335
1	7644	34.832582227344	0.31666666667
1	7881	35.332671594855	0.318333333337
1	7946	35.534338261522	0.215000000003
1	8167	36.787818798056	0.105000000001
1	8195	36.851563341367	0.208333333335
1	8375	37.092818798057	0.206666666668
1	8419	37.264896674703	0.31666666667
1	8587	39.311690530362	0.105000000001
1	8598	39.313357197029	0.208333333335
1	8779	39.969085106707	0.208333333335
1	8960	40.433083271666	0.105000000001
1	8976	40.443083271668	0.318333333337
1	9012	40.746878749624	0.203333333334
1	9051	41.193956478234	0.203333333334
1	9130	41.600823144902	0.203533333334
2	60	6.595234109621	0.305000000001
2	66	6.63467024117	0.305000000001
2	365	7.166882120344	0.311666666669
2	369	7.244670241172	0.305000000001
2	410	7.256336907841	0.31666666667
2	431	7.268548787011	0.210000000002
2	749	9.03608650599	0.208333333335
2	755	9.041086505991	0.315000000003
2	865	9.304168514094	0.215000000003
2	996	9.704168514094	0.310000000002
2	1180	10.501699478098	0.101666666667
2	1206	10.510032811433	0.313333333336
2	1394	10.871764954644	0.313333333336
2	1426	11.073431621311	0.311666666669
2	1439	11.442330825808	0.101666666667
2	1484	11.645675270253	0.101666666667
2	1515	11.64734193692	0.103333333334
2	1868	13.636026977595	0.313333333336
2	1957	13.837693644262	0.311666666669
2	2122	14.096741751474	0.311666666669
2	2170	14.196741751474	0.310000000002
2	2296	14.44722629816	0.31666666667
2	2423	14.645559631493	0.210000000002
2	2448	14.69532038799	0.215000000003
2	2580	15.098653721324	0.313333333336
2	2764	15.959437854135	0.310000000002
2	2781	16.061104520802	0.208333333335
2	2993	17.071396748388	0.31666666667
2	3035	17.269730081721	0.311666666669
2	3151	17.663537431707	0.101666666667
2	3184	17.670204098375	0.210000000002
2	3318	18.786314732262	0.101666666667
2	3458	18.931995886079	0.203333333334
2	3518	18.999648065598	0.213333333336
2	3633	19.154802000696	0.310000000002
2	3719	19.338706997191	0.203333333334
2	3755	19.345373663859	0.210000000002
2	3847	19.464802000698	0.315000000003
2	4077	20.141076443291	0.210000000002
2	4247	20.344409776625	0.210000000002
2	4273	20.355038991578	0.310000000002
2	4297	20.460038991579	0.313333333336
2	4631	22.900214108227	0.31666666667
2	4779	23.02830535107	0.211666666669
2	4833	23.09854744156	0.311666666669
2	4883	23.18638832325	0.101666666667
2	4909	23.193054989918	0.311666666669
2	4925	23.22830535107	0.208333333335
2	5017	25.007329690703	0.101666666667
2	5134	25.173997454393	0.208333333335
2	5144	25.21069635737	0.101666666667
2	5175	25.212363024037	0.103333333334
2	5346	25.478997454394	0.310000000002
2	5511	26.611126909418	0.215000000003
2	5649	27.012793576085	0.311666666669
2	5834	27.732636328756	0.101666666667
2	5883	27.75767531767	0.215000000003
2	5988	27.908692084817	0.101666666667
2	6123	28.112103195928	0.101744444444
2	6166	28.147636328759	0.313333333336
2	6182	28.162675317671	0.315000000003
2	6265	28.315436529262	0.101666666667
2	6355	31.357923049213	0.203333333334
2	6379	31.764745271435	0.203488888888
2	6590	32.176411938104	0.208333333335
2	6729	32.525445529932	0.210000000002
2	6810	32.830445529933	0.311666666669
2	6855	32.956248933917	0.101666666667
2	7003	33.367915600586	0.310000000002
2	7194	33.744822778122	0.310000000002
2	7219	33.849822778123	0.313333333336
2	7222	33.905715560674	0.305000000001
2	7389	34.515915560674	0.305000000001
2	7426	34.525915560676	0.315000000003
2	7520	34.704257464338	0.101666666667
2	7764	35.117590797674	0.311666666669
2	7829	35.229338261521	0.215000000003
2	7965	35.634338261522	0.315000000003
2	8283	36.956563341368	0.313333333336
2	8302	36.987818798056	0.101666666667
2	8328	36.994485464724	0.311666666669
2	8399	37.161563341369	0.213333333336
2	8647	39.41835719703	0.313333333336
2	8667	39.516690530363	0.310000000002
2	8684	39.717905493885	0.203333333334
2	8794	40.072418440041	0.311666666669
2	8797	40.124749938331	0.203511111112
2	8996	40.536416605	0.208333333335
2	9172	41.694053682865	0.305000000001
2	9270	41.912489811571	0.311666666669
3	72	6.651882120341	0.203333333334
3	246	7.058548787009	0.203333333334
3	283	7.06354878701	0.208333333335
3	401	7.25133690784	0.311666666669
3	490	7.454670241174	0.210000000002
3	706	8.932753172656	0.206666666668
3	739	9.031086505989	0.203333333334
3	862	9.30083518076	0.211666666669
3	937	9.495835180759	0.101666666667
3	1147	10.403366144765	0.206666666668
3	1195	10.505032811432	0.105000000001
3	1275	10.663431621309	0.105000000001
3	1409	10.96843162131	0.206666666668
3	1525	11.649008603587	0.105000000001
3	1605	11.855675270255	0.210000000002
3	1725	13.42769364426	0.105000000001
3	1897	13.732693644261	0.206666666668
3	1948	13.825526298156	0.305000000001
3	2049	13.988408418139	0.101666666667
3	2087	13.995075084807	0.210000000002
3	2253	14.435559631491	0.305000000001
3	2289	14.442226298159	0.311666666669
3	2445	14.691987054656	0.211666666669
3	2524	14.890320387989	0.105000000001
3	2651	15.7511045208	0.101666666667
3	2771	16.056104520801	0.203333333334
3	2986	17.066396748387	0.311666666669
3	3012	17.16473008172	0.206666666668
3	3170	17.666870765041	0.105000000001
3	3179	17.668537431708	0.208333333335
3	3356	18.789648065596	0.105000000001
3	3472	18.946468667361	0.101666666667
3	3515	18.996314732264	0.210000000002
3	3745	19.340373663858	0.205000000001
3	3841	19.459802000697	0.310000000002
3	3871	19.548706997193	0.210000000002
3	3907	19.727698665511	0.203333333334
3	4037	20.134409776623	0.203333333334
3	4065	20.13607644329	0.205000000001
3	4089	20.146705658243	0.101666666667
3	4208	20.251705658244	0.105000000001
3	4343	22.409860906623	0.203333333334
3	4518	22.816638684401	0.203444444444
3	4620	22.895214108226	0.311666666669
3	4687	22.984721656583	0.103333333334
3	4716	22.993547441559	0.206666666668
3	4898	23.189721656584	0.105000000001
3	4915	23.223305351069	0.203333333334
3	5095	25.168997454392	0.203333333334
3	5185	25.214029690704	0.105000000001
3	5208	25.270664121059	0.101666666667
3	5326	25.420696357372	0.210000000002
3	5386	25.703335152639	0.203333333334
3	5508	26.607793576084	0.211666666669
3	5622	26.907793576084	0.206666666668
3	5856	27.737636328757	0.106666666668
3	5880	27.754341984336	0.211666666669
3	6011	27.939302995424	0.105000000001
3	6176	28.15767531767	0.310000000002
3	6280	28.318769862596	0.105000000001
3	6303	28.323769862597	0.211666666669
3	6455	31.908712196596	0.203333333334
3	6506	31.976411938104	0.211666666669
3	6580	32.171411938103	0.203333333334
3	6604	32.31544552993	0.2034
3	6789	32.725445529932	0.206666666668
3	6877	32.961248933918	0.106666666668
3	6939	33.159582267251	0.101666666667
3	7055	33.536489444787	0.101666666667
3	7144	33.641489444788	0.105000000001
3	7325	34.317582227341	0.106666666668
3	7536	34.707590797672	0.105000000001
3	7568	34.725915560676	0.210000000002
3	7707	35.012590797673	0.206666666668
3	7826	35.226004928187	0.211666666669
3	7840	35.260591169486	0.305000000001
3	7959	35.629338261521	0.310000000002
3	8159	36.786152131389	0.103333333334
3	8189	36.8498966747	0.206666666668
3	8317	36.99115213139	0.105000000001
3	8396	37.158230008035	0.210000000002
3	8529	39.210023863695	0.105000000001
3	8567	39.308357197028	0.101666666667
3	8773	39.96741844004	0.206666666668
3	8914	40.336416605	0.211666666669
3	8986	40.531416604999	0.203333333334
3	9238	41.809156478237	0.208333333335
4	131	6.900234109622	0.305000000001
4	271	7.060215453676	0.205000000001
4	335	7.160215453676	0.101666666667
4	441	7.348003574506	0.408333333335
4	507	7.55133690784	0.306666666668
4	681	8.929419839322	0.203333333334
4	795	9.132753172656	0.305000000001
4	910	9.397501847426	0.308333333335
4	936	9.495835180759	0.101666666667
4	1027	10.15176495464	0.203333333334
4	1117	10.400032811431	0.203333333334
4	1209	10.558431621308	0.203333333334
4	1245	10.603366144765	0.203333333334
4	1400	10.965098287976	0.203333333334
4	1545	11.74734193692	0.203333333334
4	1622	11.952341936921	0.306666666668
4	1642	12.915960310925	0.203333333334
4	1670	13.322693644259	0.2034
4	1888	13.729360310927	0.203333333334
4	2048	13.988408418139	0.101666666667
4	2060	13.990075084806	0.205000000001
4	2158	14.17525372132	0.305000000001
4	2337	14.537226298158	0.101666666667
4	2348	14.538892964825	0.408333333335
4	2462	14.785320387988	0.305000000001
4	2490	14.788653721322	0.308333333335
4	2650	15.7511045208	0.101666666667
4	2788	16.157771187468	0.305000000001
4	3003	17.161396748386	0.203333333334
4	3006	17.163063415053	0.408333333335
4	3191	17.765204098374	0.305000000001
4	3193	17.765204098374	0.203333333334
4	3413	18.887981398929	0.203333333334
4	3471	18.946468667361	0.101666666667
4	3558	19.09298139893	0.306666666668
4	3798	19.440373663858	0.305000000001
4	3884	19.556468667363	0.406666666668
4	3895	19.645373663859	0.306666666668
4	3960	19.943338991576	0.101666666667
4	4087	20.146705658243	0.101666666667
4	4118	20.14837232491	0.103333333334
4	4149	20.23607644329	0.305000000001
4	4151	20.23607644329	0.101666666667
4	4639	22.918305351068	0.101666666667
4	4679	22.983054989916	0.101666666667
4	4709	22.990214108225	0.203333333334
4	4729	22.996880774893	0.413333333336
4	4931	23.288054989917	0.203333333334
4	4943	23.324972017736	0.305000000001
4	5207	25.270664121059	0.101666666667
4	5219	25.272330787726	0.306666666668
4	5244	25.312363024037	0.203333333334
4	5362	25.517363024038	0.306666666668
4	5554	26.70446024275	0.308333333335
4	5616	26.90446024275	0.203333333334
4	5673	27.208001069225	0.203333333334
4	5706	27.427547439867	0.203333333334
4	5900	27.834302995423	0.203333333334
4	5924	27.83596966209	0.205000000001
4	5969	27.851008651002	0.308333333335
4	6253	28.254341984336	0.406666666668
4	6320	28.417103195929	0.203333333334
4	6332	28.42210319593	0.310000000002
4	6554	32.07307860477	0.308333333335
4	6601	32.27307860477	0.305000000001
4	6647	32.417112196597	0.101666666667
4	6783	32.722112196598	0.203333333334
4	6910	33.059582267251	0.205000000001
4	6938	33.159582267251	0.101666666667
4	6991	33.333100555898	0.101666666667
4	7053	33.536489444787	0.101666666667
4	7084	33.538156111454	0.103333333334
4	7109	33.600715560673	0.305000000001
4	7261	34.210915560673	0.305199999999
4	7589	34.805924131005	0.203333333334
4	7638	34.822582227342	0.306666666668
4	7701	35.009257464339	0.203333333334
4	7869	35.322671594853	0.308333333335
4	7968	35.726004928187	0.406666666668
4	8151	36.784485464722	0.101666666667
4	8182	36.846563341366	0.203333333334
4	8369	37.089485464723	0.203333333334
4	8413	37.254896674701	0.306666666668
4	8429	38.901579419249	0.101666666667
4	8449	39.105023863694	0.101777777778
4	8482	39.15064066226	0.203333333334
4	8566	39.308357197028	0.101666666667
4	8670	39.557418440038	0.203444444444
4	8767	39.964085106706	0.203333333334
4	8962	40.433083271666	0.308333333335
4	8999	40.54354541629	0.203333333334
4	9005	40.633083271666	0.305000000001
4	9084	41.389053682864	0.305000000001
4	9091	41.397289811568	0.203333333334
4	9226	41.804156478236	0.203333333334
4	9230	41.805823144903	0.205000000001
4	9343	42.420623144902	0.305000000001
5	178	6.958548787009	0.103333333334
5	217	7.046336907839	0.106666666668
5	421	7.26354878701	0.205000000001
5	487	7.453003574507	0.208333333335
5	551	8.624419839321	0.101666666667
5	603	8.827753172655	0.101666666667
5	641	8.831086505989	0.105000000001
5	859	9.299168514093	0.210000000002
5	974	9.599168514093	0.205000000001
5	1087	10.301699478098	0.105000000001
5	1187	10.503366144765	0.103333333334
5	1365	10.865098287976	0.103333333334
5	1367	10.865098287976	0.306666666668
5	1516	11.64734193692	0.103333333334
5	1602	11.854008603588	0.208333333335
5	1839	13.629360310927	0.103333333334
5	1841	13.629360310927	0.306666666668
5	1998	13.888408418139	0.103333333334
5	2107	14.091741751473	0.205000000001
5	2185	14.237226298158	0.106666666668
5	2413	14.640559631492	0.205000000001
5	2442	14.690320387989	0.210000000002
5	2574	15.091987054656	0.306666666668
5	2600	15.446082298577	0.203333333334
5	2679	15.852771187467	0.203333333334
5	2715	15.856104520801	0.206666666668
5	2860	16.861396748386	0.106666666668
5	2958	17.061396748386	0.103333333334
5	3026	17.256848542817	0.101666666667
5	3044	17.460204098373	0.101688888889
5	3161	17.665204098374	0.103333333334
5	3298	18.728662552745	0.203333333334
5	3347	18.787981398929	0.103333333334
5	3512	18.994648065597	0.208333333335
5	3546	19.051468667362	0.206666666668
5	3570	19.135373663857	0.203377777778
5	3686	19.254802000696	0.105000000001
5	3850	19.524365332177	0.203333333334
5	3868	19.547040330526	0.208333333335
5	3927	19.931076443289	0.203377777778
5	4198	20.250038991577	0.205000000001
5	4237	20.339409776624	0.205000000001
5	4291	20.453372324911	0.306666666668
5	4400	22.613194239957	0.203333333334
5	4424	22.690214108225	0.106666666668
5	4594	22.890214108225	0.103333333334
5	4733	23.019972017735	0.203333333334
5	4769	23.023305351069	0.206666666668
5	4811	23.08638832325	0.205000000001
5	4890	23.188054989917	0.103333333334
5	4954	24.558864121058	0.203333333334
5	4984	24.965664121058	0.203466666666
5	5176	25.212363024037	0.103333333334
5	5295	25.373997454393	0.205000000001
5	5323	25.419029690705	0.208333333335
5	5505	26.606126909417	0.210000000002
5	5585	26.80446024275	0.103333333334
5	5842	27.734302995423	0.103333333334
5	5877	27.752675317669	0.210000000002
5	6036	27.952675317669	0.105000000001
5	6160	28.140969662091	0.306666666668
5	6272	28.317103195929	0.103333333334
5	6302	28.323769862597	0.211666666669
5	6365	31.561256382547	0.203333333334
5	6461	31.968078604769	0.203333333334
5	6503	31.974745271437	0.210000000002
5	6711	32.520445529931	0.205000000001
5	6750	32.622112196598	0.103333333334
5	6863	32.957915600584	0.103333333334
5	6975	33.262915600585	0.205000000001
5	7134	33.639822778121	0.205000000001
5	7213	33.843156111455	0.306666666668
5	7416	34.519248894008	0.308333333335
5	7535	34.707590797672	0.105000000001
5	7565	34.724248894009	0.208333333335
5	7664	34.909257464339	0.103333333334
5	7823	35.22433826152	0.210000000002
5	7896	35.42433826152	0.105000000001
5	8122	36.748230008033	0.105000000001
5	8235	36.887818798056	0.205000000001
5	8309	36.989485464723	0.103333333334
5	8393	37.156563341368	0.208333333335
5	8630	39.411690530362	0.205000000001
5	8632	39.411690530362	0.306666666668
5	8734	39.864085106706	0.103333333334
5	8758	39.921238827219	0.203333333334
5	8869	40.328083271665	0.203333333334
5	8911	40.334749938333	0.210000000002
5	9187	41.704156478236	0.103333333334
6	184	6.960215453676	0.105000000001
6	336	7.160215453676	0.101666666667
6	396	7.248003574506	0.308333333335
6	510	7.553003574507	0.308333333335
6	594	8.78416851409	0.305000000001
6	633	8.829419839322	0.103333333334
6	743	9.032753172656	0.205000000001
6	837	9.224161778177	0.305000000001
6	880	9.394168514092	0.305000000001
6	915	9.399168514093	0.310000000002
6	1081	10.300032811431	0.103333333334
6	1248	10.605032811432	0.205000000001
6	1267	10.661764954642	0.103333333334
6	1366	10.865098287976	0.103333333334
6	1553	11.749008603587	0.205000000001
6	1625	11.954008603588	0.308333333335
6	1717	13.426026977593	0.103333333334
6	1840	13.629360310927	0.103333333334
6	1875	13.683397307027	0.101666666667
6	1968	13.886741751472	0.101666666667
6	2006	13.890075084806	0.105000000001
6	2283	14.438892964825	0.308333333335
6	2338	14.537226298158	0.101666666667
6	2495	14.790320387989	0.310000000002
6	2510	14.886987054655	0.101666666667
6	2590	15.242748965243	0.203333333334
6	2610	15.649437854133	0.203355555556
6	2775	16.057771187468	0.205000000001
6	2959	17.061396748386	0.103333333334
6	2970	17.063063415053	0.308333333335
6	3163	17.665204098374	0.205000000001
6	3196	17.766870765041	0.205000000001
6	3217	18.234702000693	0.305000000001
6	3375	18.844802000694	0.3051
6	3421	18.889648065596	0.205000000001
6	3561	19.094648065597	0.308333333335
6	3746	19.340373663858	0.205000000001
6	3838	19.456468667363	0.306666666668
6	3898	19.647040330526	0.308333333335
6	3921	19.841672324909	0.101666666667
6	4002	20.045038991576	0.1017
6	4066	20.13607644329	0.205000000001
6	4152	20.23607644329	0.101666666667
6	4185	20.24837232491	0.101666666667
6	4349	22.474632767693	0.203333333334
6	4551	22.881388323249	0.203422222222
6	4595	22.890214108225	0.103333333334
6	4625	22.896880774893	0.313333333336
6	4640	22.918305351068	0.101666666667
6	4919	23.224972017736	0.205000000001
6	4934	23.289721656584	0.205000000001
6	4964	24.762197454392	0.203333333334
6	5094	25.168997454392	0.203333333334
6	5128	25.172330787726	0.206666666668
6	5252	25.314029690704	0.205000000001
6	5365	25.519029690705	0.308333333335
6	5559	26.706126909417	0.310000000002
6	5586	26.80446024275	0.103333333334
6	5931	27.837636328757	0.206666666668
6	5973	27.852675317669	0.310000000002
6	5997	27.93596966209	0.101666666667
6	6173	28.154341984336	0.306666666668
6	6323	28.418769862596	0.205000000001
6	6338	28.423769862597	0.311666666669
6	6561	32.074745271437	0.310000000002
6	6584	32.17307860477	0.205000000001
6	6654	32.418778863264	0.103333333334
6	6751	32.622112196598	0.103333333334
6	6774	32.651093378362	0.203333333334
6	6884	33.057915600584	0.203333333334
6	6917	33.061248933918	0.206666666668
6	6963	33.231433889231	0.101666666667
6	7010	33.43482277812	0.101722222222
6	7121	33.638156111454	0.101666666667
6	7305	34.31258222734	0.101666666667
6	7615	34.807590797672	0.205000000001
6	7641	34.824248894009	0.308333333335
6	7665	34.909257464339	0.103333333334
6	7873	35.32433826152	0.310000000002
6	7956	35.626004928187	0.306666666668
6	8005	36.275929909165	0.203333333334
6	8072	36.682818798055	0.203555555556
6	8116	36.746563341366	0.103333333334
6	8372	37.09115213139	0.205000000001
6	8416	37.256563341368	0.308333333335
6	8439	39.003246085916	0.101666666667
6	8490	39.206690530361	0.101666666667
6	8519	39.208357197028	0.103333333334
6	8735	39.864085106706	0.103333333334
6	8969	40.434749938333	0.310000000002
6	8990	40.533083271666	0.205000000001
6	9193	41.705823144903	0.105000000001
7	276	7.061882120343	0.206666666668
7	313	7.15133690784	0.211666666669
7	350	7.16354878701	0.105000000001
7	457	7.354670241174	0.110000000002
7	695	8.931086505989	0.103333333334
7	717	8.93608650599	0.210000000002
7	822	9.20083518076	0.111666666669
7	975	9.599168514093	0.205000000001
7	1013	9.993366144763	0.203333333334
7	1116	10.400032811431	0.203333333334
7	1154	10.405032811432	0.208333333335
7	1336	10.766764954643	0.208333333335
7	1408	10.96843162131	0.206666666668
7	1433	11.340664159141	0.101666666667
7	1445	11.544008603586	0.101677777778
7	1575	11.755675270255	0.110000000002
7	1796	13.531026977594	0.208333333335
7	1896	13.732693644261	0.206666666668
7	2071	13.991741751473	0.206666666668
7	2108	14.091741751473	0.205000000001
7	2232	14.342226298159	0.211666666669
7	2355	14.540559631492	0.105000000001
7	2392	14.591987054656	0.111666666669
7	2555	14.993653721323	0.208333333335
7	2707	15.854437854134	0.205000000001
7	2746	15.956104520801	0.103333333334
7	2929	16.966396748387	0.211666666669
7	3011	17.16473008172	0.206666666668
7	3038	17.358515209484	0.101666666667
7	3083	17.56187076504	0.101666666667
7	3123	17.565204098374	0.105000000001
7	3235	18.481292510039	0.101666666667
7	3265	18.684648065595	0.101688888889
7	3443	18.896314732264	0.110000000002
7	3540	19.049802000695	0.205000000001
7	3666	19.240373663858	0.105000000001
7	3775	19.359802000697	0.210000000002
7	3819	19.448706997193	0.110000000002
7	3990	20.03607644329	0.105000000001
7	4166	20.239409776624	0.105000000001
7	4199	20.250038991577	0.205000000001
7	4272	20.355038991578	0.208333333335
7	4406	22.677966101027	0.203333333334
7	4500	22.795214108226	0.211666666669
7	4660	22.923305351069	0.106666666668
7	4715	22.993547441559	0.206666666668
7	4784	23.084721656583	0.203333333334
7	4816	23.088054989917	0.206666666668
7	4855	23.123305351069	0.103333333334
7	4978	24.905663024036	0.101666666667
7	5040	25.068997454392	0.103333333334
7	5059	25.109029690703	0.1017
7	5274	25.320696357372	0.110000000002
7	5296	25.373997454393	0.205000000001
7	5474	26.507793576084	0.111666666669
7	5621	26.907793576084	0.206666666668
7	5679	27.224214106533	0.203333333334
7	5753	27.630969662089	0.203422222222
7	5810	27.654341984336	0.111666666669
7	6063	28.010358751484	0.101666666667
7	6083	28.042636328758	0.208333333335
7	6106	28.05767531767	0.210000000002
7	6185	28.213769862595	0.101666666667
7	6235	28.223769862597	0.111666666669
7	6440	31.876411938104	0.111666666669
7	6543	32.071411938103	0.103333333334
7	6662	32.420445529931	0.105000000001
7	6678	32.447760045028	0.203333333334
7	6788	32.725445529932	0.206666666668
7	6813	32.85458226725	0.203488888888
7	6976	33.262915600585	0.205000000001
7	7135	33.639822778121	0.205000000001
7	7193	33.744822778122	0.208333333335
7	7251	34.195790797671	0.203333333334
7	7370	34.420915560675	0.210000000002
7	7432	34.602590797671	0.203466666666
7	7492	34.625915560676	0.110000000002
7	7706	35.012590797673	0.206666666668
7	7788	35.126004928187	0.111666666669
7	7935	35.529338261521	0.210000000002
7	8025	36.479263242499	0.203333333334
7	8194	36.851563341367	0.208333333335
7	8208	36.886152131389	0.203333333334
7	8240	36.889485464723	0.206666666668
7	8351	37.058230008035	0.110000000002
7	8601	39.313357197029	0.208333333335
7	8631	39.411690530362	0.205000000001
7	8772	39.96741844004	0.206666666668
7	8854	40.236416605	0.111666666669
7	8951	40.431416604999	0.103333333334
7	9233	41.80748981157	0.206666666668
8	291	7.065215453677	0.210000000002
8	327	7.158003574508	0.218333333337
8	425	7.265215453677	0.206666666668
8	516	7.563003574509	0.318333333337
8	685	8.929419839322	0.101666666667
8	713	8.934419839323	0.208333333335
8	922	9.409168514095	0.320000000004
8	938	9.495835180759	0.101666666667
8	1108	10.355098287974	0.203333333334
8	1155	10.405032811432	0.208333333335
8	1254	10.608366144766	0.208333333335
8	1297	10.761764954642	0.203333333334
8	1335	10.766764954643	0.208333333335
8	1567	11.752341936921	0.208333333335
8	1631	11.96400860359	0.318333333337
8	1795	13.531026977594	0.208333333335
8	1903	13.734360310928	0.208333333335
8	2050	13.988408418139	0.101666666667
8	2088	13.995075084807	0.210000000002
8	2246	14.348892964827	0.218333333337
8	2417	14.642226298159	0.206666666668
8	2504	14.800320387991	0.320000000004
8	2552	14.991987054656	0.206666666668
8	2652	15.7511045208	0.101666666667
8	2736	15.954437854134	0.101666666667
8	2805	16.551374526162	0.203333333334
8	2887	16.958063415052	0.203333333334
8	2943	16.973063415055	0.218333333337
8	3086	17.56187076504	0.101666666667
8	3202	17.770204098375	0.208333333335
8	3435	18.89298139893	0.208333333335
8	3473	18.946468667361	0.101666666667
8	3567	19.104648065599	0.318333333337
8	3651	19.237040330524	0.101666666667
8	3789	19.366468667365	0.21666666667
8	3904	19.657040330528	0.318333333337
8	3975	20.032743109956	0.101666666667
8	4090	20.146705658243	0.101666666667
8	4241	20.341076443291	0.206666666668
8	4266	20.353372324911	0.206666666668
8	4515	22.801880774894	0.218333333337
8	4680	22.983054989916	0.101666666667
8	4722	22.995214108226	0.208333333335
8	4770	23.023305351069	0.206666666668
8	4845	23.121638684402	0.101666666667
8	4940	23.293054989918	0.208333333335
8	5032	25.067330787725	0.101666666667
8	5209	25.270664121059	0.101666666667
8	5266	25.317363024038	0.208333333335
8	5353	25.500001819305	0.203333333334
8	5371	25.529029690707	0.318333333337
8	5403	26.091060242748	0.305000000001
8	5526	26.701126909416	0.305000000001
8	5568	26.716126909419	0.320000000004
8	5937	27.839302995424	0.208333333335
8	5985	27.862675317671	0.320000000004
8	6080	28.040969662091	0.206666666668
8	6120	28.064341984338	0.21666666667
8	6331	28.42210319593	0.208333333335
8	6344	28.432103195932	0.320000000004
8	6533	32.069745271436	0.101666666667
8	6568	32.084745271439	0.320000000004
8	6571	32.11204552993	0.203333333334
8	6686	32.518778863264	0.203333333334
8	6723	32.523778863265	0.208333333335
8	6923	33.062915600585	0.208333333335
8	6940	33.159582267251	0.101666666667
8	7056	33.536489444787	0.101666666667
8	7187	33.743156111455	0.206666666668
8	7366	34.417582227341	0.206666666668
8	7630	34.812590797673	0.210000000002
8	7647	34.834248894011	0.318333333337
8	7713	35.01425746434	0.208333333335
8	7885	35.334338261522	0.320000000004
8	7949	35.536004928189	0.21666666667
8	7983	36.033030008032	0.305000000001
8	8039	36.643230008032	0.305199999999
8	8152	36.784485464722	0.101666666667
8	8378	37.094485464724	0.208333333335
8	8422	37.26656334137	0.318333333337
8	8568	39.308357197028	0.101666666667
8	8600	39.313357197029	0.208333333335
8	8613	39.353973995594	0.203333333334
8	8690	39.760751773372	0.203333333334
8	8941	40.429749938332	0.101666666667
8	8980	40.444749938335	0.320000000004
8	9248	41.810823144904	0.210000000002
9	358	7.165215453677	0.310000000002
9	406	7.254670241174	0.315000000003
9	428	7.266882120344	0.208333333335
9	493	7.458003574508	0.213333333336
9	535	8.479168514089	0.305000000001
9	746	9.034419839323	0.206666666668
9	752	9.039419839324	0.313333333336
9	758	9.089168514091	0.305000000001
9	993	9.702501847427	0.308333333335
9	1179	10.501699478098	0.101666666667
9	1203	10.508366144766	0.311666666669
9	1390	10.870098287977	0.311666666669
9	1423	11.071764954644	0.310000000002
9	1487	11.645675270253	0.101666666667
9	1608	11.859008603589	0.213333333336
9	1864	13.634360310928	0.311666666669
9	1954	13.836026977595	0.310000000002
9	1960	13.870253721319	0.305000000001
9	2118	14.095075084807	0.310000000002
9	2167	14.195075084807	0.308333333335
9	2293	14.445559631493	0.315000000003
9	2299	14.480320387987	0.305066666667
9	2420	14.643892964826	0.208333333335
9	2577	15.096987054657	0.311666666669
9	2757	15.957771187468	0.308333333335
9	2778	16.059437854135	0.206666666668
9	2990	17.069730081721	0.315000000003
9	3032	17.268063415054	0.310000000002
9	3150	17.663537431707	0.101666666667
9	3180	17.668537431708	0.208333333335
9	3251	18.582959176706	0.101666666667
9	3315	18.786314732262	0.101666666667
9	3346	18.787981398929	0.103333333334
9	3629	19.153135334029	0.308333333335
9	3751	19.343706997192	0.208333333335
9	3844	19.463135334031	0.313333333336
9	3874	19.552040330527	0.213333333336
9	4073	20.139409776624	0.208333333335
9	4244	20.342743109958	0.208333333335
9	4267	20.353372324911	0.308333333335
9	4294	20.458372324912	0.311666666669
9	4628	22.89854744156	0.315000000003
9	4776	23.026638684403	0.210000000002
9	4830	23.096880774893	0.310000000002
9	4882	23.18638832325	0.101666666667
9	4905	23.191388323251	0.310000000002
9	4922	23.226638684403	0.206666666668
9	5129	25.172330787726	0.206666666668
9	5147	25.21069635737	0.101666666667
9	5329	25.424029690706	0.213333333336
9	5343	25.477330787727	0.308333333335
9	5389	25.786060242747	0.305000000001
9	5417	26.396126909415	0.305066666667
9	5636	26.932508651	0.305000000001
9	5646	27.011126909418	0.310000000002
9	5720	27.542675317667	0.305166666666
9	5833	27.732636328756	0.101666666667
9	6163	28.145969662092	0.311666666669
9	6179	28.161008651004	0.313333333336
9	6264	28.315436529262	0.101666666667
9	6306	28.327103195931	0.215000000003
9	6509	31.979745271438	0.215000000003
9	6587	32.174745271437	0.206666666668
9	6724	32.523778863265	0.208333333335
9	6807	32.828778863266	0.310000000002
9	6854	32.956248933917	0.101666666667
9	7000	33.366248933919	0.308333333335
9	7188	33.743156111455	0.308333333335
9	7216	33.848156111456	0.311666666669
9	7346	34.404138261518	0.305000000001
9	7422	34.524248894009	0.313333333336
9	7519	34.704257464338	0.101666666667
9	7571	34.72924889401	0.213333333336
9	7716	35.014338261518	0.305199999999
9	7758	35.115924131007	0.310000000002
9	7962	35.632671594855	0.313333333336
9	8011	36.338030008033	0.305000000001
9	8254	36.948230008033	0.305000000001
9	8279	36.954896674701	0.311666666669
9	8301	36.987818798056	0.101666666667
9	8324	36.992818798057	0.310000000002
9	8644	39.416690530363	0.311666666669
9	8663	39.515023863696	0.308333333335
9	8791	40.070751773374	0.310000000002
9	8917	40.339749938334	0.215000000003
9	8993	40.534749938333	0.206666666668
9	9264	41.910823144904	0.310000000002
9	9298	42.115623144901	0.305000000001
9	9387	42.725923144903	0.305300000001

