version 2
run General-45-20190610-18:04:06-20528
attr configname General
attr datetime 20190610-18:04:06
attr experiment General
attr inifile omnetpp.ini
attr iterationvars ""
attr iterationvarsf ""
attr measurement ""
attr network networks.Net5
attr processid 20528
attr repetition 45
attr replication #45
attr resultdir results
attr runnumber 45
attr seedset 45
param **.appType "\"App\""
param **.app.packetLength "1500 bytes"
param **.app.totalNodes 10
param **.destAddresses "\"0\""
param **.sendIaTime "uniform(5s, 10s)"
param **.sendIaTimeEvil 10ms

vector 0 Net5.rte[1].app endToEndDelay:vector ETV
attr interpolationmode none
attr title "end-to-end delay of arrived packets, vector"
attr unit s
vector 1 Net5.rte[6].app endToEndDelay:vector ETV
attr interpolationmode none
attr title "end-to-end delay of arrived packets, vector"
attr unit s
vector 2 Net5.rte[2].app endToEndDelay:vector ETV
attr interpolationmode none
attr title "end-to-end delay of arrived packets, vector"
attr unit s
vector 3 Net5.rte[4].app endToEndDelay:vector ETV
attr interpolationmode none
attr title "end-to-end delay of arrived packets, vector"
attr unit s
vector 4 Net5.rte[8].app endToEndDelay:vector ETV
attr interpolationmode none
attr title "end-to-end delay of arrived packets, vector"
attr unit s
vector 5 Net5.rte[9].app endToEndDelay:vector ETV
attr interpolationmode none
attr title "end-to-end delay of arrived packets, vector"
attr unit s
vector 6 Net5.rte[5].app endToEndDelay:vector ETV
attr interpolationmode none
attr title "end-to-end delay of arrived packets, vector"
attr unit s
vector 7 Net5.rte[3].app endToEndDelay:vector ETV
attr interpolationmode none
attr title "end-to-end delay of arrived packets, vector"
attr unit s
vector 8 Net5.rte[7].app endToEndDelay:vector ETV
attr interpolationmode none
attr title "end-to-end delay of arrived packets, vector"
attr unit s
vector 9 Net5.rte[0].app endToEndDelay:vector ETV
attr interpolationmode none
attr title "end-to-end delay of arrived packets, vector"
attr unit s
0	15	5.691447828497	0.305000000001
0	43	6.301447828499	0.305000000001
0	298	6.913114495168	0.306666666668
0	397	7.132682195066	0.305000000001
0	437	7.22311449517	0.205000000001
0	479	7.32311449517	0.101666666667
0	528	7.425680782612	0.203333333334
0	708	7.742715528401	0.305000000001
0	736	7.746048861735	0.308333333335
0	765	7.812359168659	0.101666666667
0	1002	8.11735916866	0.203333333334
0	1091	8.256068057148	0.101666666667
0	1103	8.257734723815	0.205000000001
0	1358	9.275731689648	0.308333333335
0	1391	9.475731689648	0.305000000001
0	1669	10.796569475059	0.308333333335
0	1761	10.904628830795	0.203333333334
0	1788	10.996569475059	0.203333333334
0	1925	11.31296216413	0.306666666668
0	2026	12.10010223686	0.101666666667
0	2121	12.201768903527	0.101666666667
0	2233	12.32150340556	0.203333333334
0	2363	12.729836738895	0.306666666668
0	2561	16.006925775869	0.101666666667
0	2669	16.160002253716	0.203333333334
0	2675	16.161668920383	0.408333333335
0	2694	16.210281331425	0.101666666667
0	2748	16.211947998092	0.103333333334
0	2922	16.414241204969	0.203333333334
0	3045	16.617574538303	0.305000000001
0	3400	17.542468233719	0.308333333335
0	3419	17.576008787845	0.305000000001
0	3423	17.577675454512	0.205000000001
0	3486	17.742468233719	0.203333333334
0	3631	20.00417615889	0.101666666667
0	3642	20.005842825557	0.205000000001
0	3762	22.020703611231	0.101666666667
0	3882	22.325703611232	0.203333333334
0	4058	23.454236107379	0.203333333334
0	4158	23.644836745259	0.101666666667
0	4343	23.862569440714	0.306666666668
0	4371	24.051503411927	0.305000000001
0	4384	24.640111761833	0.101666666667
0	4431	24.8434784285	0.101666666667
0	4461	24.845145095167	0.103333333334
0	4735	25.590211112545	0.205000000001
0	4772	25.690211112545	0.101666666667
0	4996	26.264823912002	0.308333333335
0	5019	26.363157245335	0.101666666667
0	5219	26.979923912004	0.308333333335
0	5273	27.179923912004	0.203333333334
0	5509	28.601009629003	0.203333333334
0	5515	28.60267629567	0.408333333335
0	5720	30.660851801413	0.203333333334
0	5864	30.843916295197	0.101666666667
0	5870	30.864185134747	0.305000000001
0	5932	30.923212702606	0.308333333335
0	6054	31.047327406308	0.101744444444
0	6232	31.220676361951	0.305000000001
0	6236	31.222343028618	0.205000000001
0	6282	31.250660739642	0.101666666667
0	6329	31.32654603594	0.406666666668
0	6393	32.561018941989	0.305000000001
0	6422	33.171185608656	0.305166666666
0	6653	33.782852275325	0.306666666668
0	6716	34.102448160131	0.101666666667
0	6848	34.407448160132	0.203333333334
0	6962	35.258753153299	0.203333333334
0	7089	35.667086486634	0.306666666668
0	7275	36.932444621598	0.308333333335
0	7329	37.132444621598	0.203333333334
0	7412	37.925377754831	0.101666666667
0	7526	38.066668624159	0.101666666667
0	7538	38.128711088165	0.203333333334
0	7584	38.270113068604	0.101777777778
0	7701	38.473446401938	0.101666666667
0	7920	39.458793782065	0.203333333334
0	8060	39.865460448733	0.406666666668
0	8118	40.331213166542	0.101666666667
0	8274	40.841213166544	0.306666666668
0	8305	43.103281847134	0.203333333334
0	8388	43.510104069356	0.203333333334
0	8412	43.511770736023	0.205000000001
0	8528	44.598615962746	0.203333333334
0	8552	45.005415962746	0.203466666666
0	8665	45.412082629414	0.203333333334
0	8734	45.537303154362	0.101666666667
0	8834	45.638969821029	0.101666666667
0	9033	45.920111295024	0.308333333335
0	9066	46.120111295024	0.305000000001
0	9268	47.595727669678	0.305000000001
0	9390	47.800727669679	0.306666666668
0	9446	47.983908879639	0.203333333334
0	9582	48.390575546307	0.406666666668
0	9676	49.742778675131	0.101666666667
0	9769	49.87664338601	0.203333333334
0	9830	49.946212008465	0.101666666667
0	9840	49.947878675132	0.103333333334
0	9943	50.079976719344	0.203333333334
0	9995	50.356112008465	0.203333333334
1	29	5.996447828498	0.305000000001
1	155	6.6064478285	0.305000000001
1	194	6.614781161835	0.313333333336
1	506	7.328114495171	0.310000000002
1	544	7.429781161838	0.208333333335
1	664	7.652715528403	0.215000000003
1	923	8.015692501993	0.101666666667
1	946	8.020692501994	0.310000000002
1	983	8.05438219507	0.311666666669
1	1157	8.362734723816	0.310000000002
1	1171	8.462734723816	0.308333333335
1	1177	8.560731689645	0.203333333334
1	1197	8.967398356313	0.203333333334
1	1385	9.377398356315	0.206666666668
1	1410	9.878202808389	0.305000000001
1	1460	10.25005756884	0.305000000001
1	1492	10.488236141724	0.305033333334
1	1833	11.01296216413	0.311666666669
1	1844	11.103236141727	0.310000000002
1	1907	11.219628830798	0.213333333336
1	1965	11.813070072226	0.305000000001
1	2218	12.308435570195	0.208333333335
1	2224	12.313435570196	0.315000000003
1	2260	12.423170072227	0.305000000001
1	2285	12.429836738895	0.311666666669
1	2581	16.058335587049	0.101666666667
1	2615	16.068335587051	0.315000000003
1	2953	16.416947998093	0.308333333335
1	3020	16.51924120497	0.206666666668
1	3026	16.521947998094	0.311666666669
1	3036	16.524241204971	0.313333333336
1	3048	16.624068233716	0.305000000001
1	3115	17.234134900384	0.305066666667
1	3352	17.477675454512	0.206666666668
1	3477	17.682675454513	0.310000000002
1	3506	17.849134900387	0.310000000002
1	3569	19.902509492223	0.101666666667
1	3684	20.110842825558	0.208333333335
1	3849	22.224036944565	0.101666666667
1	3872	22.229036944566	0.310000000002
1	4140	23.562569440714	0.311666666669
1	4288	23.769236107382	0.213333333336
1	4329	23.851503411927	0.308333333335
1	4365	23.953170078594	0.206666666668
1	4532	24.950145095168	0.208333333335
1	4600	25.155145095169	0.311666666669
1	4795	25.695211112546	0.310000000002
1	4827	25.796877779213	0.208333333335
1	4888	26.060084423582	0.305000000001
1	4952	26.17149057867	0.215000000003
1	5075	26.569823912003	0.308333333335
1	5086	26.671590578669	0.306506155086
1	5293	27.286590578672	0.310000000002
1	5466	28.499342962336	0.101666666667
1	5500	28.509342962338	0.315000000003
1	5621	30.559185134746	0.101666666667
1	5819	30.765851801414	0.206666666668
1	5853	30.829879369274	0.215000000003
1	6117	31.122343028618	0.206666666668
1	6266	31.233212702608	0.313333333336
1	6332	31.327343028619	0.310000000002
1	6363	31.358994072977	0.311666666669
1	6375	31.45732740631	0.308333333335
1	6559	33.484518941992	0.313333333336
1	6635	33.689518941993	0.213333333336
1	6811	34.305781493465	0.101666666667
1	6834	34.310781493466	0.310000000002
1	6874	34.750219819966	0.305000000001
1	6986	35.360419819966	0.305000000001
1	7011	35.367086486634	0.311666666669
1	7236	36.839111288266	0.215000000003
1	7349	37.239111288266	0.310000000002
1	7551	38.132044421499	0.308333333335
1	7578	38.235377754833	0.310000000002
1	7777	38.581779735273	0.311666666669
1	7796	38.680113068606	0.308333333335
1	7885	39.357127115398	0.101666666667
1	8050	39.772127115401	0.313333333336
1	8063	39.924313166543	0.305000000001
1	8170	40.534546499876	0.305000000001
1	8195	40.539546499877	0.310000000002
1	8464	43.616770736024	0.310000000002
1	8511	43.821770736025	0.311666666669
1	8722	45.518749296082	0.310000000002
1	8868	45.64396982103	0.208333333335
1	8983	45.826777961692	0.215000000003
1	8997	45.845636487697	0.308333333335
1	9060	46.021777961691	0.206666666668
1	9087	47.087216558565	0.203333333334
1	9208	47.494061003011	0.203333333334
1	9240	47.499061003012	0.208333333335
1	9514	48.092242212974	0.311666666669
1	9576	48.297242212975	0.313333333336
1	9876	49.978310052677	0.101666666667
1	9901	49.984976719345	0.311666666669
1	9931	50.052878675133	0.208333333335
2	79	6.403114495166	0.101666666667
2	301	6.914781161835	0.308333333335
2	376	7.12311449517	0.105000000001
2	468	7.304025835324	0.203333333334
2	480	7.32311449517	0.101666666667
2	675	7.710692501992	0.203333333334
2	741	7.747715528402	0.310000000002
2	796	7.844382195068	0.101666666667
2	898	7.951056946036	0.101666666667
2	1005	8.119025835327	0.205000000001
2	1019	8.154401390481	0.101666666667
2	1057	8.157734723815	0.105000000001
2	1365	9.277398356315	0.310000000002
2	1382	9.375731689648	0.205000000001
2	1674	10.798236141726	0.310000000002
2	1691	10.804628830795	0.103333333334
2	1735	10.896569475059	0.103333333334
2	1928	11.314628830797	0.308333333335
2	1959	11.795091125748	0.101666666667
2	1981	11.998435570193	0.101677777778
2	2122	12.201768903527	0.101666666667
2	2175	12.22150340556	0.103333333334
2	2366	12.731503405562	0.308333333335
2	2487	15.905259109202	0.101666666667
2	2604	16.061668920383	0.308333333335
2	2621	16.075002253719	0.312889113056
2	2627	16.108614664758	0.101688888889
2	2674	16.161668920383	0.205000000001
2	2793	16.311947998092	0.101666666667
2	2841	16.314241204969	0.103333333334
2	3017	16.517574538303	0.205000000001
2	3341	17.476008787845	0.103333333334
2	3342	17.476008787845	0.205000000001
2	3405	17.544134900386	0.310000000002
2	3454	17.642468233719	0.103333333334
2	3632	20.00417615889	0.101666666667
2	3662	20.009176158891	0.208333333335
2	3701	21.51230361123	0.203333333334
2	3721	21.919036944564	0.2034
2	3885	22.327370277899	0.205000000001
2	3960	23.136436745258	0.203333333334
2	4024	23.354236107379	0.103333333334
2	4082	23.543170078592	0.2034
2	4346	23.864236107381	0.308333333335
2	4362	23.951503411927	0.205000000001
2	4433	24.8434784285	0.101666666667
2	4500	24.945145095167	0.101666666667
2	4683	25.490211112545	0.105000000001
2	4761	25.651290578668	0.305000000001
2	4773	25.690211112545	0.101666666667
2	4963	26.261490578668	0.305000000001
2	5002	26.266490578669	0.310000000002
2	5224	26.981590578671	0.310000000002
2	5247	27.079923912004	0.103333333334
2	5489	28.50267629567	0.308333333335
2	5514	28.60267629567	0.205000000001
2	5738	30.66251846808	0.205000000001
2	5816	30.764185134747	0.205000000001
2	5936	30.924879369273	0.310000000002
2	5951	30.945582961864	0.101666666667
2	6106	31.120676361951	0.103333333334
2	6107	31.120676361951	0.205000000001
2	6168	31.148994072975	0.101666666667
2	6197	31.150660739642	0.103333333334
2	6255	31.22654603594	0.306666666668
2	6458	33.272852275323	0.101666666667
2	6611	33.593981493464	0.203333333334
2	6656	33.784518941992	0.308333333335
2	6675	34.000781493464	0.203466666666
2	6851	34.409114826799	0.205000000001
2	6932	35.158753153299	0.103333333334
2	7092	35.668753153301	0.308333333335
2	7280	36.934111288265	0.310000000002
2	7303	37.032444621598	0.103333333334
2	7359	37.62027775483	0.101666666667
2	7371	37.823711088164	0.101766666667
2	7492	38.028711088165	0.103333333334
2	7568	38.168335290826	0.101666666667
2	7617	38.331484559523	0.305000000001
2	7625	38.371779735271	0.101666666667
2	7654	38.373446401938	0.103333333334
2	7945	39.460460448732	0.205000000001
2	8001	39.619313166542	0.305000000001
2	8044	39.765460448733	0.306666666668
2	8077	40.229546499875	0.305233333332
2	8277	40.842879833211	0.308333333335
2	8365	43.411770736023	0.105000000001
2	8442	43.611770736023	0.101666666667
2	8627	45.312082629414	0.103333333334
2	8650	45.333836487695	0.101666666667
2	8732	45.537303154362	0.101666666667
2	8762	45.538969821029	0.103333333334
2	9040	45.921777961691	0.310000000002
2	9057	46.020111295024	0.205000000001
2	9235	47.495727669678	0.205000000001
2	9393	47.802394336346	0.308333333335
2	9416	47.883908879639	0.103333333334
2	9570	48.290575546307	0.306666666668
2	9696	49.77664338601	0.103333333334
2	9832	49.946212008465	0.101666666667
2	9946	50.081643386011	0.205000000001
3	102	6.408114495167	0.106666666668
3	265	6.813903160792	0.203333333334
3	275	6.816447828502	0.210000000002
3	409	7.221447828503	0.203333333334
3	450	7.226447828504	0.208333333335
3	661	7.649382195069	0.211666666669
3	773	7.814025835326	0.103333333334
3	810	7.847715528402	0.105000000001
3	939	8.019025835327	0.105000000001
3	1092	8.256068057148	0.101666666667
3	1130	8.262734723816	0.210000000002
3	1314	9.179065022982	0.211666666669
3	1378	9.374065022981	0.203333333334
3	1594	10.699902808393	0.211666666669
3	1768	10.907962164129	0.206666666668
3	1794	10.999902808393	0.206666666668
3	1904	11.216295497464	0.210000000002
3	1971	11.896757792415	0.101666666667
3	2024	12.10010223686	0.101666666667
3	2054	12.101768903527	0.103333333334
3	2240	12.324836738894	0.206666666668
3	2346	12.633170072229	0.210000000002
3	2603	16.061668920383	0.105000000001
3	2612	16.065002253717	0.311666666669
3	2696	16.210281331425	0.101666666667
3	2851	16.315281331426	0.105000000001
3	2963	16.417574538303	0.206666666668
3	3009	16.515907871636	0.203333333334
3	3308	17.445801567053	0.211666666669
3	3329	17.474342121178	0.203333333334
3	3429	17.579342121179	0.206666666668
3	3492	17.745801567053	0.206666666668
3	3522	19.699153936667	0.101666666667
3	3567	19.902509492223	0.101666666667
3	3615	19.907509492224	0.106666666668
3	3770	22.022370277898	0.103333333334
3	3865	22.227370277899	0.105000000001
3	4065	23.457569440713	0.206666666668
3	4159	23.644836745259	0.101666666667
3	4285	23.765902774048	0.210000000002
3	4358	23.94983674526	0.203333333334
3	4378	24.538445095166	0.101666666667
3	4390	24.741811761833	0.1017
3	4523	24.948478428501	0.105000000001
3	4606	25.181788890322	0.203333333334
3	4710	25.588544445878	0.203333333334
3	4747	25.593544445879	0.208333333335
3	4949	26.168157245336	0.211666666669
3	5020	26.363157245335	0.101666666667
3	5177	26.883257245338	0.211666666669
3	5279	27.183257245338	0.206666666668
3	5488	28.50267629567	0.105000000001
3	5497	28.506009629004	0.311666666669
3	5661	30.56251846808	0.105000000001
3	5812	30.76251846808	0.203333333334
3	5850	30.82654603594	0.211666666669
3	6094	31.119009695284	0.203333333334
3	6207	31.152327406309	0.105000000001
3	6242	31.224009695285	0.206666666668
3	6263	31.229879369274	0.310000000002
3	6283	31.250660739642	0.101666666667
3	6478	33.277852275324	0.106666666668
3	6632	33.686185608659	0.210000000002
3	6724	34.104114826798	0.103333333334
3	6827	34.309114826799	0.105000000001
3	6969	35.262086486633	0.206666666668
3	7072	35.570419819968	0.210000000002
3	7233	36.835777954932	0.211666666669
3	7335	37.135777954932	0.206666666668
3	7413	37.925377754831	0.101666666667
3	7550	38.132044421499	0.206666666668
3	7664	38.375113068605	0.105000000001
3	7702	38.473446401938	0.101666666667
3	7902	39.360460448732	0.105000000001
3	8047	39.768793782067	0.310000000002
3	8126	40.332879833209	0.103333333334
3	8257	40.744546499878	0.210000000002
3	8424	43.515104069357	0.208333333335
3	8456	43.615104069357	0.105000000001
3	8606	45.232169821028	0.101666666667
3	8671	45.415415962748	0.206666666668
3	8685	45.435636487695	0.1018
3	8835	45.638969821029	0.101666666667
3	8980	45.823444628358	0.211666666669
3	9053	46.018444628357	0.203333333334
3	9234	47.495727669678	0.205000000001
3	9333	47.704061003013	0.210000000002
3	9472	47.987242212973	0.206666666668
3	9573	48.293908879641	0.310000000002
3	9627	49.641112008464	0.101666666667
3	9730	49.844545341798	0.101766666667
3	9800	49.879976719344	0.206666666668
3	9893	49.981643386011	0.105000000001
4	125	6.5064478285	0.205000000001
4	308	6.92311449517	0.31666666667
4	458	7.228114495171	0.210000000002
4	537	7.426447828504	0.205000000001
4	639	7.629014115946	0.203333333334
4	751	7.756048861737	0.318333333337
4	781	7.815692501993	0.105000000001
4	818	7.849390279369	0.101666666667
4	888	7.947715528402	0.205000000001
4	960	8.052734723814	0.101677777778
4	1008	8.120692501994	0.206666666668
4	1112	8.259401390482	0.105000000001
4	1356	9.275731689648	0.105000000001
4	1369	9.28573168965	0.318333333337
4	1440	10.091262164126	0.305000000001
4	1597	10.701295497461	0.305033333334
4	1701	10.806569475061	0.318333333337
4	1800	11.00156947506	0.208333333335
4	1931	11.322962164132	0.31666666667
4	2064	12.103435570194	0.105000000001
4	2212	12.305102236861	0.205000000001
4	2246	12.326503405561	0.208333333335
4	2369	12.739836738897	0.31666666667
4	2551	15.970002253718	0.21666666667
4	2678	16.16333558705	0.206666666668
4	2761	16.213614664759	0.105000000001
4	2935	16.415281331426	0.205000000001
4	2961	16.417574538303	0.105000000001
4	2976	16.41924120497	0.208333333335
4	3071	16.929068233717	0.305000000001
4	3088	17.031174760843	0.305000000001
4	3275	17.376008787845	0.105000000001
4	3372	17.539134900385	0.305000000001
4	3411	17.552468233721	0.318333333337
4	3435	17.581008787846	0.208333333335
4	3653	20.007509492224	0.206666666668
4	3678	20.107509492224	0.205000000001
4	3778	22.024036944565	0.105000000001
4	3888	22.329036944566	0.206666666668
4	4071	23.45923610738	0.208333333335
4	4182	23.64983674526	0.106666666668
4	4327	23.851503411927	0.105000000001
4	4349	23.872569440716	0.31666666667
4	4514	24.946811761834	0.205000000001
4	4567	25.048478428501	0.205000000001
4	4755	25.595211112546	0.210000000002
4	4821	25.793544445879	0.205000000001
4	5006	26.274823912004	0.318333333337
4	5031	26.365084423583	0.305000000001
4	5040	26.366490578669	0.105000000001
4	5191	26.97659057867	0.305000000001
4	5230	26.989923912006	0.318333333337
4	5452	28.411009629005	0.21666666667
4	5518	28.604342962337	0.206666666668
4	5744	30.664185134747	0.105000000001
4	5752	30.665851801414	0.208333333335
4	5944	30.933212702608	0.318333333337
4	6005	31.020676361951	0.105000000001
4	6160	31.134879369275	0.215000000003
4	6251	31.225676361952	0.208333333335
4	6303	31.253994072976	0.105000000001
4	6314	31.255660739643	0.208333333335
4	6500	33.376185608657	0.205000000001
4	6659	33.792852275327	0.31666666667
4	6732	34.105781493465	0.105000000001
4	6854	34.410781493466	0.206666666668
4	6975	35.2637531533	0.208333333335
4	7095	35.677086486636	0.31666666667
4	7127	36.31897795493	0.305000000001
4	7247	36.929111288264	0.305000000001
4	7286	36.9424446216	0.318333333337
4	7452	37.928711088165	0.105000000001
4	7559	38.133711088166	0.208333333335
4	7722	38.476779735272	0.105000000001
4	7733	38.478446401939	0.208333333335
4	7950	39.463793782066	0.208333333335
4	8030	39.673793782068	0.215000000003
4	8134	40.334546499876	0.105000000001
4	8280	40.851213166546	0.31666666667
4	8295	42.8999485138	0.203333333334
4	8315	43.306770736022	0.203488888888
4	8486	43.715104069357	0.205000000001
4	8538	44.80194929608	0.203333333334
4	8576	45.20874929608	0.203333333334
4	8854	45.642303154363	0.105000000001
4	8865	45.64396982103	0.208333333335
4	9031	45.920111295024	0.105000000001
4	9044	45.930111295026	0.318333333337
4	9150	47.373819990749	0.203333333334
4	9181	47.395727669678	0.105000000001
4	9354	47.780575546305	0.203422222222
4	9396	47.810727669681	0.31666666667
4	9560	48.198908879642	0.215000000003
4	9808	49.881643386011	0.208333333335
4	9921	50.049545341799	0.205000000001
4	9949	50.083310052678	0.206666666668
4	9965	50.152778675131	0.203333333334
4	10021	50.475576324022	0.101666666667
4	10036	50.559645341799	0.203533333334
5	132	6.508114495167	0.206666666668
5	185	6.610569827458	0.203333333334
5	311	6.924781161837	0.318333333337
5	318	7.018114495169	0.204211334377
5	541	7.428114495171	0.206666666668
5	754	7.757715528404	0.320000000004
5	766	7.812359168659	0.101666666667
5	892	7.949382195069	0.206666666668
5	1011	8.122359168661	0.208333333335
5	1093	8.256068057148	0.101666666667
5	1131	8.262734723816	0.210000000002
5	1337	9.272398356314	0.101666666667
5	1372	9.287398356317	0.320000000004
5	1450	10.18320280839	0.305000000001
5	1641	10.793236141725	0.305000000001
5	1711	10.808236141728	0.320000000004
5	1774	10.909628830796	0.208333333335
5	1934	11.324628830799	0.318333333337
5	1941	11.508070072225	0.305000000001
5	2027	12.10010223686	0.101666666667
5	2080	12.118170072226	0.3051
5	2215	12.306768903528	0.206666666668
5	2372	12.741503405564	0.318333333337
5	2554	15.971668920385	0.218333333337
5	2566	16.00756342719	0.101666666667
5	2681	16.165002253717	0.208333333335
5	2697	16.210281331425	0.101666666667
5	2718	16.210907871635	0.101677777778
5	2925	16.414241204969	0.101666666667
5	2952	16.416947998093	0.206666666668
5	3109	17.169297676733	0.101666666667
5	3233	17.372675454511	0.101666666667
5	3265	17.374342121178	0.103333333334
5	3414	17.554134900388	0.320000000004
5	3498	17.74746823372	0.208333333335
5	3663	20.009176158891	0.208333333335
5	3681	20.109176158891	0.206666666668
5	3763	22.020703611231	0.101666666667
5	3891	22.330703611233	0.208333333335
5	3906	22.640836107377	0.305000000001
5	3929	22.891289603863	0.203333333334
5	3974	23.250902774045	0.305066666667
5	4160	23.644836745259	0.101666666667
5	4308	23.848170078593	0.101666666667
5	4352	23.874236107383	0.318333333337
5	4525	24.948478428501	0.206666666668
5	4547	24.978455556988	0.203333333334
5	4571	25.050145095168	0.206666666668
5	4629	25.385211112544	0.203422222222
5	4824	25.795211112546	0.206666666668
5	5009	26.276490578671	0.320000000004
5	5021	26.363157245335	0.101666666667
5	5233	26.991590578673	0.320000000004
5	5285	27.184923912005	0.208333333335
5	5455	28.412676295672	0.218333333337
5	5521	28.606009629004	0.208333333335
5	5724	30.660851801413	0.101666666667
5	5756	30.667518468081	0.210000000002
5	5825	30.813931917506	0.101666666667
5	5948	30.934879369275	0.320000000004
5	5963	31.017343028617	0.101666666667
5	5995	31.019009695284	0.103333333334
5	6163	31.136546035942	0.21666666667
5	6284	31.250660739642	0.101666666667
5	6316	31.255660739643	0.208333333335
5	6507	33.377852275324	0.206666666668
5	6662	33.794518941994	0.318333333337
5	6717	34.102448160131	0.101666666667
5	6857	34.412448160133	0.208333333335
5	6860	34.445219819965	0.305000000001
5	6888	35.055419819965	0.305199999999
5	7098	35.678753153303	0.318333333337
5	7289	36.944111288267	0.320000000004
5	7341	37.137444621599	0.208333333335
5	7365	37.721944421497	0.101666666667
5	7410	37.925377754831	0.101666666667
5	7441	37.927044421498	0.103333333334
5	7703	38.473446401938	0.101666666667
5	7735	38.478446401939	0.208333333335
5	7954	39.465460448733	0.210000000002
5	8033	39.675460448735	0.21666666667
5	8119	40.331213166542	0.101666666667
5	8283	40.852879833213	0.318333333337
5	8432	43.516770736024	0.210000000002
5	8490	43.716770736024	0.206666666668
5	8677	45.417082629415	0.208333333335
5	8836	45.638969821029	0.101666666667
5	8867	45.64396982103	0.208333333335
5	9012	45.91677796169	0.101666666667
5	9047	45.931777961693	0.320000000004
5	9165	47.392394336344	0.101666666667
5	9399	47.812394336348	0.318333333337
5	9402	47.870207292427	0.203333333334
5	9479	47.98890887964	0.208333333335
5	9563	48.200575546309	0.21666666667
5	9593	49.26646560823	0.203333333334
5	9636	49.673310052676	0.203511111112
5	9927	50.051212008466	0.206666666668
5	9952	50.084976719345	0.208333333335
6	140	6.511447828501	0.210000000002
6	235	6.716447828502	0.110000000002
6	443	7.224781161837	0.206666666668
6	498	7.326447828504	0.105000000001
6	583	7.507359168658	0.203333333334
6	620	7.549382195069	0.111666666669
6	835	7.914025835326	0.203333333334
6	867	7.91735916866	0.206666666668
6	895	7.951048861736	0.208333333335
6	1114	8.259401390482	0.206666666668
6	1147	8.359401390482	0.205000000001
6	1254	9.079065022982	0.111666666669
6	1347	9.274065022981	0.103333333334
6	1559	10.599902808393	0.111666666669
6	1773	10.909628830796	0.208333333335
6	1793	10.999902808393	0.206666666668
6	1870	11.116295497464	0.110000000002
6	2140	12.205102236861	0.105000000001
6	2153	12.210102236862	0.211666666669
6	2245	12.326503405561	0.208333333335
6	2316	12.533170072229	0.110000000002
6	2393	15.549980031492	0.203333333334
6	2498	15.956668920382	0.203333333334
6	2540	15.965002253717	0.211666666669
6	2831	16.313614664759	0.205000000001
6	2943	16.415907871636	0.103333333334
6	2968	16.41861466476	0.208333333335
6	2986	16.420907871637	0.210000000002
6	3212	17.345801567053	0.111666666669
6	3267	17.374342121178	0.103333333334
6	3428	17.579342121179	0.206666666668
6	3491	17.745801567053	0.206666666668
6	3516	19.59748727	0.101666666667
6	3528	19.800842825556	0.101688888889
6	3651	20.007509492224	0.105000000001
6	3711	21.715636944564	0.203333333334
6	3792	22.122370277898	0.203333333334
6	3824	22.125703611232	0.206666666668
6	4070	23.45923610738	0.208333333335
6	4207	23.665902774048	0.110000000002
6	4250	23.748170078593	0.205000000001
6	4318	23.84983674526	0.103333333334
6	4472	24.846811761834	0.105000000001
6	4574	25.051811761835	0.208333333335
6	4740	25.591877779212	0.206666666668
6	4787	25.693544445879	0.105000000001
6	4911	26.068157245336	0.111666666669
6	5057	26.466490578669	0.205000000001
6	5143	26.783257245338	0.111666666669
6	5278	27.183257245338	0.206666666668
6	5317	27.990920740113	0.203333333334
6	5399	28.397676295669	0.203333333334
6	5441	28.406009629004	0.211666666669
6	5554	30.254140690301	0.101666666667
6	5576	30.457518468079	0.101711111111
6	5736	30.66251846808	0.103333333334
6	5790	30.72654603594	0.111666666669
6	5997	31.019009695284	0.103333333334
6	6149	31.129879369274	0.210000000002
6	6241	31.224009695285	0.206666666668
6	6317	31.255660739643	0.208333333335
6	6350	31.353994072976	0.205000000001
6	6511	33.381185608658	0.210000000002
6	6596	33.586185608659	0.110000000002
6	6665	33.797314826798	0.203333333334
6	6750	34.204114826798	0.203333333334
6	6782	34.207448160132	0.206666666668
6	6974	35.2637531533	0.208333333335
6	7042	35.470419819968	0.110000000002
6	7199	36.735777954932	0.111666666669
6	7334	37.135777954932	0.206666666668
6	7494	38.028711088165	0.205000000001
6	7549	38.132044421499	0.206666666668
6	7736	38.478446401939	0.208333333335
6	7764	38.576779735272	0.205000000001
6	7810	38.848727115397	0.203333333334
6	7816	38.919738178008	0.101666666667
6	7840	39.255460448731	0.2034
6	8019	39.668793782067	0.210000000002
6	8157	40.436213166543	0.206666666668
6	8227	40.644546499878	0.110000000002
6	8417	43.51343740269	0.206666666668
6	8493	43.718437402691	0.208333333335
6	8670	45.415415962748	0.206666666668
6	8772	45.540636487696	0.105000000001
6	8899	45.723444628358	0.111666666669
6	8924	45.742303154363	0.205000000001
6	9022	45.918444628357	0.103333333334
6	9180	47.395727669678	0.105000000001
6	9289	47.604061003013	0.110000000002
6	9478	47.98890887964	0.208333333335
6	9549	48.193908879641	0.210000000002
6	9603	49.469798941564	0.203333333334
6	9768	49.87664338601	0.203333333334
6	9807	49.881643386011	0.208333333335
6	9852	49.949545341799	0.105000000001
7	182	6.609781161834	0.308333333335
7	271	6.814781161835	0.208333333335
7	370	7.121447828503	0.103333333334
7	536	7.426447828504	0.205000000001
7	658	7.647715528402	0.210000000002
7	862	7.915692501993	0.205000000001
7	931	8.01735916866	0.103333333334
7	957	8.049382195069	0.306666666668
7	1049	8.156068057148	0.103333333334
7	1146	8.359401390482	0.205000000001
7	1187	8.764065022979	0.203333333334
7	1269	9.170731689647	0.203333333334
7	1311	9.177398356315	0.210000000002
7	1591	10.698236141726	0.210000000002
7	1697	10.806295497462	0.105000000001
7	1734	10.896569475059	0.103333333334
7	1901	11.214628830797	0.208333333335
7	2133	12.203435570194	0.205000000001
7	2181	12.223170072227	0.105000000001
7	2211	12.305102236861	0.205000000001
7	2343	12.631503405562	0.208333333335
7	2456	15.860002253716	0.106666666668
7	2591	16.060002253716	0.103333333334
7	2650	16.109230093857	0.101666666667
7	2798	16.312574538302	0.101666666667
7	2830	16.313614664759	0.205000000001
7	2860	16.315907871636	0.105000000001
7	3013	16.516947998093	0.306666666668
7	3095	17.067631010066	0.101666666667
7	3152	17.271008787844	0.101711111111
7	3305	17.444134900386	0.210000000002
7	3340	17.476008787845	0.103333333334
7	3453	17.642468233719	0.103333333334
7	3598	19.90417615889	0.103333333334
7	3677	20.107509492224	0.205000000001
7	3819	22.124036944565	0.205000000001
7	3857	22.225703611232	0.103333333334
7	4007	23.339770078592	0.203333333334
7	4030	23.355902774046	0.105000000001
7	4222	23.746503411926	0.203333333334
7	4258	23.74983674526	0.206666666668
7	4282	23.764236107381	0.208333333335
7	4513	24.946811761834	0.205000000001
7	4597	25.150145095168	0.306666666668
7	4677	25.488544445878	0.103333333334
7	4820	25.793544445879	0.205000000001
7	4946	26.166490578669	0.210000000002
7	5056	26.466490578669	0.205000000001
7	5174	26.881590578671	0.210000000002
7	5246	27.079923912004	0.103333333334
7	5372	28.301009629003	0.106666666668
7	5476	28.501009629003	0.103333333334
7	5566	30.355807356968	0.101666666667
7	5619	30.559185134746	0.101666666667
7	5660	30.56251846808	0.105000000001
7	5759	30.712265250839	0.101666666667
7	5847	30.824879369273	0.210000000002
7	5873	30.91567636195	0.101744444444
7	6026	31.024879369273	0.105000000001
7	6105	31.120676361951	0.103333333334
7	6349	31.353994072976	0.205000000001
7	6351	31.353994072976	0.306666666668
7	6553	33.479518941991	0.308333333335
7	6629	33.684518941992	0.208333333335
7	6777	34.205781493465	0.205000000001
7	6819	34.307448160132	0.103333333334
7	6938	35.160419819966	0.105000000001
7	7069	35.568753153301	0.208333333335
7	7230	36.834111288265	0.210000000002
7	7302	37.032444621598	0.103333333334
7	7491	38.028711088165	0.103333333334
7	7493	38.028711088165	0.205000000001
7	7763	38.576779735272	0.205000000001
7	7765	38.576779735272	0.306666666668
7	7826	39.021404844675	0.101666666667
7	7901	39.360460448732	0.105000000001
7	7974	39.563793782066	0.105000000001
7	8154	40.434546499876	0.205000000001
7	8254	40.742879833211	0.208333333335
7	8359	43.410104069356	0.103333333334
7	8508	43.816770736024	0.306666666668
7	8626	45.312082629414	0.103333333334
7	8656	45.408311295023	0.203333333334
7	8847	45.640636487696	0.205000000001
7	8923	45.742303154363	0.205000000001
7	8935	45.815111295023	0.203333333334
7	8977	45.821777961691	0.210000000002
7	9077	46.883883225231	0.203333333334
7	9113	47.290727669677	0.203511111112
7	9330	47.702394336346	0.208333333335
7	9422	47.885575546306	0.105000000001
7	9504	48.08890887964	0.105000000001
7	9702	49.778310052677	0.105000000001
7	9885	49.979976719344	0.103333333334
7	9920	50.049545341799	0.205000000001
8	198	6.616447828502	0.315000000003
8	278	6.819781161836	0.213333333336
8	289	6.827682195065	0.305000000001
8	513	7.329781161838	0.311666666669
8	547	7.431447828505	0.210000000002
8	550	7.4377155284	0.305033333334
8	924	8.015692501993	0.101666666667
8	950	8.022359168661	0.311666666669
8	988	8.056048861737	0.313333333336
8	1161	8.364401390483	0.311666666669
8	1174	8.464401390483	0.310000000002
8	1317	9.182398356316	0.215000000003
8	1388	9.379065022982	0.208333333335
8	1482	10.396262164127	0.305000000001
8	1622	10.703236141727	0.215000000003
8	1808	11.006295497462	0.305000000001
8	1837	11.014628830797	0.313333333336
8	1847	11.104902808394	0.311666666669
8	2221	12.310102236862	0.210000000002
8	2227	12.315102236863	0.31666666667
8	2289	12.431503405562	0.313333333336
8	2349	12.636503405563	0.213333333336
8	2582	16.058335587049	0.101666666667
8	2618	16.070002253718	0.31666666667
8	2969	16.41861466476	0.310000000002
8	3023	16.520907871637	0.208333333335
8	3032	16.523614664761	0.313333333336
8	3039	16.525907871638	0.315000000003
8	3188	17.336174760844	0.305000000001
8	3311	17.449134900387	0.215000000003
8	3363	17.479342121179	0.208333333335
8	3480	17.68434212118	0.311666666669
8	3509	17.850801567054	0.311666666669
8	3570	19.902509492223	0.101666666667
8	3687	20.112509492225	0.210000000002
8	3850	22.224036944565	0.101666666667
8	3876	22.230703611233	0.311666666669
8	3939	22.945836107378	0.305000000001
8	4115	23.555902774046	0.305000000001
8	4144	23.564236107381	0.313333333336
8	4336	23.853170078594	0.310000000002
8	4368	23.954836745261	0.208333333335
8	4539	24.951811761835	0.210000000002
8	4603	25.156811761836	0.313333333336
8	4623	25.346290578667	0.305000000001
8	4802	25.696877779213	0.311666666669
8	4830	25.79854444588	0.210000000002
8	4844	25.956490578667	0.305199999999
8	5081	26.57149057867	0.310000000002
8	5180	26.886590578672	0.215000000003
8	5296	27.288257245339	0.311666666669
8	5467	28.499342962336	0.101666666667
8	5503	28.511009629005	0.31666666667
8	5536	30.004812702603	0.305000000001
8	5622	30.559185134746	0.101666666667
8	5679	30.614879369271	0.305066666667
8	5822	30.767518468081	0.208333333335
8	6131	31.124009695285	0.208333333335
8	6269	31.234879369275	0.315000000003
8	6335	31.329009695286	0.311666666669
8	6366	31.360660739644	0.313333333336
8	6378	31.458994072977	0.310000000002
8	6408	32.86601894199	0.305000000001
8	6526	33.476185608657	0.305000000001
8	6563	33.486185608659	0.315000000003
8	6812	34.305781493465	0.101666666667
8	6838	34.312448160133	0.311666666669
8	7015	35.368753153301	0.313333333336
8	7075	35.573753153302	0.213333333336
8	7113	36.013977954929	0.305000000001
8	7142	36.624111288263	0.305133333333
8	7352	37.240777954933	0.311666666669
8	7560	38.133711088166	0.310000000002
8	7581	38.2370444215	0.311666666669
8	7780	38.58344640194	0.313333333336
8	7783	38.636484559524	0.305000000001
8	7799	38.681779735273	0.310000000002
8	7886	39.357127115398	0.101666666667
8	8053	39.773793782068	0.315000000003
8	8199	40.541213166544	0.311666666669
8	8260	40.747879833212	0.213333333336
8	8471	43.618437402691	0.311666666669
8	8514	43.823437402692	0.313333333336
8	8570	45.204977961689	0.203333333334
8	8725	45.520415962749	0.311666666669
8	8791	45.611777961689	0.203466666666
8	8872	45.645636487697	0.210000000002
8	9000	45.847303154364	0.310000000002
8	9063	46.023444628358	0.208333333335
8	9244	47.500727669679	0.210000000002
8	9336	47.707394336347	0.213333333336
8	9347	47.716119417586	0.305000000001
8	9521	48.093908879641	0.313333333336
8	9579	48.298908879642	0.315000000003
8	9877	49.978310052677	0.101666666667
8	9904	49.986643386012	0.313333333336
8	9934	50.0545453418	0.210000000002
9	215	6.709781161834	0.408333333335
9	295	6.911447828501	0.305000000001
9	410	7.221447828503	0.203333333334
9	589	7.526447828504	0.305000000001
9	731	7.744382195068	0.306666666668
9	920	8.015692501993	0.305000000001
9	1001	8.11735916866	0.203333333334
9	1014	8.149382195069	0.406666666668
9	1089	8.256068057148	0.203333333334
9	1167	8.459401390482	0.305000000001
9	1334	9.272398356314	0.101666666667
9	1348	9.274065022981	0.306666666668
9	1529	10.555057568841	0.305000000001
9	1664	10.794902808392	0.306666666668
9	1765	10.906295497462	0.205000000001
9	1787	10.996569475059	0.203333333334
9	1922	11.311295497463	0.305000000001
9	2204	12.303435570194	0.305000000001
9	2237	12.323170072227	0.205000000001
9	2257	12.405102236861	0.305000000001
9	2360	12.728170072228	0.305000000001
9	2383	15.346646698158	0.203333333334
9	2403	15.753335587048	0.203355555556
9	2668	16.160002253716	0.203333333334
9	2907	16.38000225372	0.305000000001
9	2912	16.413614664759	0.305000000001
9	2933	16.415281331426	0.102706793124
9	2951	16.416947998093	0.206040126458
9	3042	16.616947998093	0.406666666668
9	3234	17.372675454511	0.101666666667
9	3395	17.540801567052	0.306666666668
9	3420	17.576008787845	0.203333333334
9	3485	17.742468233719	0.203333333334
9	3629	20.00417615889	0.203333333334
9	3690	20.207509492224	0.305000000001
9	3846	22.224036944565	0.305000000001
9	3881	22.325703611232	0.203333333334
9	3957	23.094622937197	0.203333333334
9	4062	23.455902774046	0.205000000001
9	4305	23.848170078593	0.101666666667
9	4319	23.84983674526	0.306666666668
9	4340	23.860902774047	0.305000000001
9	4559	25.046811761834	0.305000000001
9	4616	25.250145095168	0.406666666668
9	4711	25.588544445878	0.203333333334
9	4841	25.893544445879	0.305000000001
9	4988	26.263157245335	0.306666666668
9	5072	26.566490578669	0.305000000001
9	5214	26.978257245337	0.306666666668
9	5272	27.179923912004	0.203333333334
9	5307	27.787587406779	0.203333333334
9	5327	28.194342962335	0.203422222222
9	5508	28.601009629003	0.203333333334
9	5560	30.309812702604	0.305000000001
9	5721	30.660851801413	0.101666666667
9	5737	30.66251846808	0.205000000001
9	5903	30.919879369272	0.305000000001
9	5927	30.921546035939	0.306666666668
9	5964	31.017343028617	0.101666666667
9	6233	31.220676361951	0.203333333334
9	6369	31.453994072976	0.406666666668
9	6372	31.455660739643	0.306666666668
9	6580	33.579518941991	0.408333333335
9	6650	33.781185608658	0.305000000001
9	6808	34.305781493465	0.305000000001
9	6847	34.407448160132	0.203333333334
9	6966	35.260419819966	0.205000000001
9	7086	35.665419819967	0.305000000001
9	7270	36.930777954931	0.306666666668
9	7328	37.132444621598	0.203333333334
9	7537	38.128711088165	0.305000000001
9	7542	38.130377754832	0.205000000001
9	7790	38.676779735272	0.406666666668
9	7793	38.678446401939	0.306666666668
9	7829	39.052060448731	0.203333333334
9	7919	39.458793782065	0.203333333334
9	7944	39.460460448732	0.205000000001
9	8171	40.534546499876	0.305000000001
9	8271	40.839546499877	0.305000000001
9	8389	43.510104069356	0.203333333334
9	8517	43.916770736024	0.406666666668
9	8664	45.412082629414	0.203333333334
9	8916	45.740636487696	0.305000000001
9	8994	45.842303154363	0.305000000001
9	9009	45.91677796169	0.101666666667
9	9023	45.918444628357	0.306666666668
9	9163	47.392394336344	0.101666666667
9	9192	47.411119417585	0.305000000001
9	9260	47.577153324083	0.203333333334
9	9308	47.666873959093	0.203333333334
9	9387	47.799061003012	0.305000000001
9	9445	47.983908879639	0.203333333334
9	9468	47.985575546306	0.205000000001
9	9794	49.878310052677	0.205000000001
9	9942	50.079976719344	0.203333333334
9	9962	50.149545341799	0.305000000001

