version 2
run General-31-20190529-16:33:04-9220
attr configname General
attr datetime 20190529-16:33:04
attr experiment General
attr inifile omnetpp.ini
attr iterationvars ""
attr iterationvarsf ""
attr measurement ""
attr network networks.Net5
attr processid 9220
attr repetition 31
attr replication #31
attr resultdir results
attr runnumber 31
attr seedset 31
param **.appType "\"App\""
param **.app.packetLength "1500 bytes"
param **.app.totalNodes 3
param **.destAddresses "\"0\""
param **.sendIaTime "uniform(5s, 10s)"
param **.sendIaTimeEvil 10ms

vector 0 Net5.rte[2].app endToEndDelay:vector ETV
attr interpolationmode none
attr title "end-to-end delay of arrived packets, vector"
attr unit s
vector 1 Net5.rte[1].app endToEndDelay:vector ETV
attr interpolationmode none
attr title "end-to-end delay of arrived packets, vector"
attr unit s
vector 2 Net5.rte[0].app endToEndDelay:vector ETV
attr interpolationmode none
attr title "end-to-end delay of arrived packets, vector"
attr unit s
0	7	5.246624667996	0.101666666667
0	19	5.44995800133	0.101666666667
0	49	5.653291334664	0.101666666667
0	56	6.531935794844	0.101666666667
0	68	6.735269128178	0.101666666667
0	98	6.938602461512	0.101666666667
0	111	9.993861172548	0.101666666667
0	131	10.197216728104	0.101666666667
0	141	10.198883394771	0.103333333334
0	181	13.783763622034	0.101666666667
0	196	13.885430288701	0.101666666667
0	209	15.440859743827	0.101666666667
0	221	15.644226410494	0.101666666667
0	240	16.122293832811	0.101666666667
0	252	16.325649388367	0.101688888889
0	282	16.528982721701	0.101666666667
0	295	21.122016506703	0.101666666667
0	315	21.325405395592	0.101666666667
0	325	21.327072062259	0.103333333334
0	451	22.336588053337	0.101666666667
0	471	22.441543608892	0.101666666667
0	503	22.64492138667	0.101711111111
1	13	5.348291334663	0.101666666667
1	33	5.551624667997	0.101666666667
1	43	5.553291334664	0.103333333334
1	83	6.836935794845	0.101666666667
1	97	6.938602461512	0.101666666667
1	105	9.892194505881	0.101666666667
1	117	10.095550061437	0.101688888889
1	147	10.298883394771	0.101666666667
1	160	13.580408066478	0.101666666667
1	180	13.783763622034	0.101666666667
1	190	13.785430288701	0.103333333334
1	203	15.33919307716	0.101666666667
1	215	15.542559743827	0.1017
1	233	15.745893077161	0.101666666667
1	267	16.427316055034	0.101666666667
1	281	16.528982721701	0.101666666667
1	316	21.325405395592	0.101666666667
1	331	21.427072062259	0.101666666667
1	346	21.764682411082	0.101666666667
1	377	21.923210275559	0.101666666667
1	410	22.133210275559	0.101666666667
1	450	22.336588053337	0.101666666667
1	454	22.338254720004	0.103333333334
1	487	22.543210275559	0.101666666667
2	34	5.551624667997	0.101666666667
2	48	5.653291334664	0.101666666667
2	62	6.633602461511	0.101666666667
2	82	6.836935794845	0.101666666667
2	92	6.838602461512	0.103333333334
2	132	10.197216728104	0.101666666667
2	146	10.298883394771	0.101666666667
2	154	13.478741399811	0.101666666667
2	166	13.682096955367	0.101688888889
2	195	13.885430288701	0.101666666667
2	232	15.745893077161	0.101666666667
2	246	16.223960499478	0.101666666667
2	266	16.427316055034	0.101666666667
2	276	16.428982721701	0.103333333334
2	289	21.020349840036	0.101666666667
2	301	21.223738728925	0.101722222222
2	330	21.427072062259	0.101666666667
2	358	21.821543608892	0.101666666667
2	368	21.866349077749	0.101666666667
2	394	22.031543608892	0.101666666667
2	426	22.23492138667	0.101711111111

