version 2
run General-8-20190529-16:32:55-18316
attr configname General
attr datetime 20190529-16:32:55
attr experiment General
attr inifile omnetpp.ini
attr iterationvars ""
attr iterationvarsf ""
attr measurement ""
attr network networks.Net5
attr processid 18316
attr repetition 8
attr replication #8
attr resultdir results
attr runnumber 8
attr seedset 8
param **.appType "\"App\""
param **.app.packetLength "1500 bytes"
param **.app.totalNodes 3
param **.destAddresses "\"0\""
param **.sendIaTime "uniform(5s, 10s)"
param **.sendIaTimeEvil 10ms

vector 0 Net5.rte[2].app endToEndDelay:vector ETV
attr interpolationmode none
attr title "end-to-end delay of arrived packets, vector"
attr unit s
vector 1 Net5.rte[1].app endToEndDelay:vector ETV
attr interpolationmode none
attr title "end-to-end delay of arrived packets, vector"
attr unit s
vector 2 Net5.rte[0].app endToEndDelay:vector ETV
attr interpolationmode none
attr title "end-to-end delay of arrived packets, vector"
attr unit s
0	7	5.157238856989	0.101666666667
0	19	5.360572190323	0.101666666667
0	49	5.563905523657	0.101666666667
0	83	9.773813683705	0.101666666667
0	102	9.875480350372	0.101666666667
0	111	10.046036658309	0.101666666667
0	131	10.249381102754	0.101666666667
0	141	10.251047769421	0.103333333334
0	154	12.811517293665	0.101666666667
0	166	13.014872849221	0.101688888889
0	196	13.218206182555	0.101666666667
0	203	16.621157771076	0.101666666667
0	215	16.824513326632	0.101688888889
0	245	17.027846659966	0.101666666667
0	258	19.678228629486	0.101666666667
0	280	19.824904148334	0.101666666667
0	288	19.881606407264	0.101666666667
0	298	19.883273073931	0.103333333334
0	314	24.719568257785	0.101666666667
0	326	24.922946035563	0.101711111111
0	356	25.126279368897	0.101666666667
0	363	26.161039836805	0.101666666667
0	375	26.364406503472	0.1017
0	405	26.567739836806	0.101666666667
0	418	29.547504827346	0.101666666667
0	438	29.750915938457	0.101666666667
0	448	29.752582605124	0.103333333334
0	728	34.633920972335	0.101666666667
0	760	34.837320972335	0.101733333333
0	810	35.040654305669	0.101666666667
0	1039	37.202453465865	0.101666666667
0	1075	37.405886799199	0.101666666667
0	1148	37.719609385507	0.101666666667
0	1168	37.824553829951	0.101666666667
0	1200	38.02794271884	0.101722222222
1	13	5.258905523656	0.101666666667
1	33	5.46223885699	0.101666666667
1	43	5.463905523657	0.103333333334
1	56	9.468813683704	0.101666666667
1	68	9.672147017038	0.101666666667
1	101	9.875480350372	0.101666666667
1	132	10.249381102754	0.101666666667
1	147	10.351047769421	0.101666666667
1	160	12.913183960332	0.101666666667
1	180	13.116539515888	0.101666666667
1	190	13.118206182555	0.103333333334
1	230	16.926179993299	0.101666666667
1	244	17.027846659966	0.101666666667
1	289	19.881606407264	0.101666666667
1	301	19.926570815001	0.101666666667
1	307	19.983273073931	0.101666666667
1	341	25.02461270223	0.101666666667
1	355	25.126279368897	0.101666666667
1	369	26.262706503472	0.101666666667
1	389	26.466073170139	0.101666666667
1	399	26.467739836806	0.103333333334
1	439	29.750915938457	0.101666666667
1	454	29.852582605124	0.101666666667
1	785	34.938987639002	0.101666666667
1	809	35.040654305669	0.101666666667
1	1023	37.100786799198	0.101666666667
1	1056	37.304220132532	0.101766666667
1	1103	37.507553465866	0.101666666667
1	1107	37.516220496618	0.101666666667
1	1147	37.719609385507	0.101666666667
1	1151	37.721276052174	0.103333333334
1	1184	37.926220496618	0.101666666667
2	34	5.46223885699	0.101666666667
2	48	5.563905523657	0.101666666667
2	62	9.570480350371	0.101666666667
2	82	9.773813683705	0.101666666667
2	92	9.775480350372	0.103333333334
2	105	9.944369991642	0.101666666667
2	117	10.147714436087	0.101677777778
2	146	10.351047769421	0.101666666667
2	181	13.116539515888	0.101666666667
2	195	13.218206182555	0.101666666667
2	209	16.722824437743	0.101666666667
2	229	16.926179993299	0.101666666667
2	239	16.927846659966	0.103333333334
2	252	19.576561962819	0.101666666667
2	268	19.779939740597	0.101711111111
2	306	19.983273073931	0.101666666667
2	320	24.821234924452	0.101666666667
2	340	25.02461270223	0.101666666667
2	350	25.026279368897	0.103333333334
2	390	26.466073170139	0.101666666667
2	404	26.567739836806	0.101666666667
2	412	29.445838160679	0.101666666667
2	424	29.64924927179	0.101744444444
2	453	29.852582605124	0.101666666667
2	744	34.735587639002	0.101666666667
2	784	34.938987639002	0.101666666667
2	794	34.940654305669	0.103333333334
2	1085	37.414553829951	0.101666666667
2	1102	37.507553465866	0.101666666667
2	1123	37.61794271884	0.101722222222

