version 2
run General-34-20190610-18:04:01-14948
attr configname General
attr datetime 20190610-18:04:01
attr experiment General
attr inifile omnetpp.ini
attr iterationvars ""
attr iterationvarsf ""
attr measurement ""
attr network networks.Net5
attr processid 14948
attr repetition 34
attr replication #34
attr resultdir results
attr runnumber 34
attr seedset 34
param **.appType "\"App\""
param **.app.packetLength "1500 bytes"
param **.app.totalNodes 10
param **.destAddresses "\"0\""
param **.sendIaTime "uniform(5s, 10s)"
param **.sendIaTimeEvil 10ms

vector 0 Net5.rte[2].app endToEndDelay:vector ETV
attr interpolationmode none
attr title "end-to-end delay of arrived packets, vector"
attr unit s
vector 1 Net5.rte[8].app endToEndDelay:vector ETV
attr interpolationmode none
attr title "end-to-end delay of arrived packets, vector"
attr unit s
vector 2 Net5.rte[1].app endToEndDelay:vector ETV
attr interpolationmode none
attr title "end-to-end delay of arrived packets, vector"
attr unit s
vector 3 Net5.rte[4].app endToEndDelay:vector ETV
attr interpolationmode none
attr title "end-to-end delay of arrived packets, vector"
attr unit s
vector 4 Net5.rte[9].app endToEndDelay:vector ETV
attr interpolationmode none
attr title "end-to-end delay of arrived packets, vector"
attr unit s
vector 5 Net5.rte[5].app endToEndDelay:vector ETV
attr interpolationmode none
attr title "end-to-end delay of arrived packets, vector"
attr unit s
vector 6 Net5.rte[3].app endToEndDelay:vector ETV
attr interpolationmode none
attr title "end-to-end delay of arrived packets, vector"
attr unit s
vector 7 Net5.rte[0].app endToEndDelay:vector ETV
attr interpolationmode none
attr title "end-to-end delay of arrived packets, vector"
attr unit s
vector 8 Net5.rte[6].app endToEndDelay:vector ETV
attr interpolationmode none
attr title "end-to-end delay of arrived packets, vector"
attr unit s
vector 9 Net5.rte[7].app endToEndDelay:vector ETV
attr interpolationmode none
attr title "end-to-end delay of arrived packets, vector"
attr unit s
0	7	5.171120910306	0.101666666667
0	27	5.37445424364	0.101666666667
0	159	5.579454243641	0.103333333334
0	366	5.971852120045	0.101666666667
0	396	5.976852120046	0.208333333335
0	553	7.100485940549	0.206666666668
0	618	7.300485940549	0.101666666667
0	818	7.803431862626	0.103333333334
0	851	7.828566745788	0.101666666667
0	1063	8.108431862627	0.205000000001
0	1079	8.135233412456	0.205000000001
0	1103	8.4694634204	0.305000000001
0	1132	9.079463420402	0.305000000001
0	1332	9.692796753738	0.308333333335
0	1345	11.436553182645	0.101666666667
0	1357	11.639908738201	0.101688888889
0	1465	11.844908738202	0.103333333334
0	1775	13.728465308615	0.310000000002
0	1798	13.826798641948	0.205000000001
0	1930	14.36784038815	0.205000000001
0	1961	14.469507054817	0.103333333334
0	2089	15.257277487377	0.101666666667
0	2297	15.767277487379	0.306666666668
0	2315	15.804052412611	0.101666666667
0	2493	16.214052412613	0.308333333335
0	2682	16.586535552183	0.305000000001
0	2694	16.65087915025	0.205000000001
0	2709	16.655879150251	0.311666666669
0	2853	17.196635552184	0.305000000001
0	2888	17.201635552185	0.310000000002
0	3113	17.965939866692	0.310000000002
0	3136	18.064273200025	0.103333333334
0	3269	19.001459684949	0.103333333334
0	3363	19.204793018283	0.205000000001
0	3546	22.17299187009	0.308333333335
0	3594	22.37299187009	0.101666666667
0	3861	23.312672634703	0.205000000001
0	3902	23.41433930137	0.205000000001
0	4019	23.607461106069	0.101666666667
0	4167	23.771395575514	0.103333333334
0	4178	23.773062242181	0.308333333335
0	4288	23.913098083643	0.305000000001
0	4388	24.119127772738	0.308333333335
0	4437	24.523131416978	0.305033333334
0	4667	25.017311410482	0.101666666667
0	4772	25.136464750314	0.308333333335
0	4993	25.495209208518	0.205000000001
0	5050	25.596875875185	0.205000000001
0	5063	25.628978077151	0.306666666668
0	5107	26.509901584491	0.305000000001
0	5250	27.120068251158	0.305000000001
0	5285	27.125068251159	0.310000000002
0	5392	27.378144731673	0.103333333334
0	5500	27.581478065007	0.103333333334
0	5744	28.807673395041	0.205000000001
0	5759	28.812673395042	0.311666666669
0	5820	29.661465880994	0.305000000001
0	5892	30.154398826254	0.101666666667
0	5964	30.271532547662	0.305066666667
0	5997	30.30903719329	0.101666666667
0	6121	30.51243719329	0.101733333333
0	6370	30.715770526624	0.101666666667
0	6424	30.766065492923	0.306666666668
0	6514	30.884865880998	0.308333333335
0	6594	31.131935395294	0.103333333334
0	6703	31.335268728628	0.103333333334
0	6819	31.695722628222	0.101666666667
0	6959	32.00238929489	0.205000000001
0	6989	32.162183026517	0.101666666667
0	7050	32.36560524874	0.101666666667
0	7088	32.368938582074	0.105000000001
0	7329	33.128470432408	0.308333333335
0	7412	33.837463550491	0.105000000001
0	7497	34.039130217158	0.103333333334
0	7736	34.677806343513	0.205000000001
0	7751	34.682806343514	0.311666666669
0	7839	35.697848050951	0.103333333334
0	8081	36.069253840354	0.101666666667
0	8126	36.104514717619	0.306666666668
0	8384	36.794253976213	0.205000000001
0	8425	36.89592064288	0.103333333334
1	17	5.272787576973	0.101666666667
1	60	5.396141731612	0.203333333334
1	76	5.476120910307	0.101666666667
1	122	5.481120910308	0.106666666668
1	387	5.975185453379	0.206666666668
1	416	6.075185453379	0.205000000001
1	531	7.000485940549	0.106666666668
1	609	7.293409640402	0.203333333334
1	670	7.403819273883	0.205000000001
1	741	7.700098529292	0.203355555556
1	963	7.931900079122	0.205000000001
1	1048	8.035233412456	0.105000000001
1	1066	8.110098529294	0.206666666668
1	1189	9.184463420403	0.105000000001
1	1335	9.701130087073	0.31666666667
1	1351	11.538219849312	0.101666666667
1	1396	11.741575404868	0.101666666667
1	1442	11.746575404869	0.106666666668
1	1766	13.726798641948	0.105000000001
1	1779	13.73679864195	0.318333333337
1	1937	14.371173721484	0.208333333335
1	2005	14.574507054818	0.208333333335
1	2133	15.360610820711	0.205000000001
1	2254	15.675610820714	0.215000000003
1	2374	15.907385745945	0.205000000001
1	2496	16.222385745948	0.31666666667
1	2697	16.652545816917	0.206666666668
1	2712	16.662545816919	0.318333333337
1	2892	17.20996888552	0.318333333337
1	2925	17.301635552185	0.105000000001
1	2934	17.35083986669	0.305000000001
1	3080	17.960939866691	0.305000000001
1	3119	17.974273200027	0.318333333337
1	3332	19.104793018283	0.105000000001
1	3341	19.10645968495	0.208333333335
1	3532	22.081325203425	0.21666666667
1	3632	22.476325203424	0.205000000001
1	3812	23.212672634703	0.105000000001
1	3905	23.416005968037	0.206666666668
1	4111	23.681395575516	0.21666666667
1	4131	23.710794439403	0.205000000001
1	4273	23.876395575515	0.208333333335
1	4391	24.127461106073	0.31666666667
1	4504	24.628131416979	0.105000000001
1	4744	25.120644743816	0.205000000001
1	4775	25.144798083649	0.31666666667
1	4999	25.496875875185	0.105000000001
1	5007	25.498542541852	0.208333333335
1	5037	25.537311410486	0.215000000003
1	5244	27.071389176117	0.203333333334
1	5289	27.133401584494	0.318333333337
1	5322	27.225068251159	0.105000000001
1	5431	27.478144731673	0.203333333334
1	5462	27.481478065007	0.206666666668
1	5747	28.809340061708	0.206666666668
1	5762	28.81934006171	0.318333333337
1	5942	30.257732159588	0.205000000001
1	6044	30.376532547663	0.105000000001
1	6280	30.617437193291	0.105000000001
1	6323	30.674398826258	0.215000000003
1	6475	30.819103859958	0.205000000001
1	6517	30.893199214333	0.31666666667
1	6661	31.235268728628	0.206666666668
1	6758	31.440268728629	0.208333333335
1	6882	31.799055961556	0.205000000001
1	6933	31.90238929489	0.105000000001
1	6972	32.06051635985	0.101666666667
1	7005	32.263938582073	0.101755555556
1	7151	32.470605248741	0.105000000001
1	7332	33.136803765743	0.31666666667
1	7352	33.528996883824	0.203333333334
1	7435	33.935796883824	0.203333333334
1	7480	33.942463550492	0.210000000002
1	7739	34.67947301018	0.206666666668
1	7754	34.689473010182	0.318333333337
1	7919	35.802848050952	0.208333333335
1	8064	36.012848050954	0.215000000003
1	8152	36.172587173688	0.205000000001
1	8391	36.797587309547	0.208333333335
1	8477	37.000920642881	0.208333333335
2	77	5.476120910307	0.101666666667
2	214	5.679454243641	0.203333333334
2	365	5.971852120045	0.101666666667
2	376	5.973518786712	0.205000000001
2	453	6.58881927388	0.305000000001
2	568	7.198819273882	0.305000000001
2	591	7.200485940549	0.306666666668
2	850	7.828566745788	0.101666666667
2	885	7.903431862626	0.203333333334
2	1060	8.10676519596	0.203333333334
2	1092	8.235233412456	0.305000000001
2	1173	9.181130087069	0.101666666667
2	1329	9.691130087071	0.306666666668
2	1397	11.741575404868	0.101666666667
2	1507	11.944908738202	0.203333333334
2	1668	13.541869121969	0.305000000001
2	1768	13.726798641948	0.308333333335
2	1811	13.926798641948	0.305000000001
2	1904	14.366173721483	0.203333333334
2	1993	14.569507054817	0.203333333334
2	2088	15.257277487377	0.101666666667
2	2314	15.804052412611	0.101666666667
2	2346	15.867277487379	0.406666666668
2	2490	16.212385745946	0.306666666668
2	2691	16.649212483583	0.203333333334
2	2703	16.654212483584	0.310000000002
2	2883	17.199968885518	0.308333333335
2	2909	17.298302218851	0.101666666667
2	3108	17.964273200025	0.308333333335
2	3162	18.164273200025	0.203333333334
2	3309	19.101459684949	0.203333333334
2	3378	19.304793018283	0.305000000001
2	3415	21.457947425643	0.406666666668
2	3558	22.271325203423	0.406666666668
2	3581	22.27299187009	0.408333333335
2	3686	22.895627772735	0.305000000001
2	3897	23.412672634703	0.305000000001
2	3899	23.412672634703	0.203333333334
2	3944	23.505794439402	0.305166666666
2	4258	23.871395575514	0.203333333334
2	4261	23.873062242181	0.408333333335
2	4372	24.102178077147	0.406666666668
2	4384	24.117461106071	0.306666666668
2	4488	24.624798083645	0.101666666667
2	4592	24.915644743815	0.4068
2	4769	25.134798083647	0.306666666668
2	4975	25.493542541851	0.203333333334
2	5075	25.696875875185	0.305000000001
2	5078	25.728978077151	0.406666666668
2	5162	26.868055842783	0.203333333334
2	5280	27.123401584492	0.308333333335
2	5306	27.221734917825	0.101666666667
2	5331	27.274811398339	0.203422222222
2	5534	27.681478065007	0.203333333334
2	5741	28.806006728374	0.203333333334
2	5753	28.811006728375	0.310000000002
2	5784	29.239221048475	0.406666666668
2	5852	30.052732159587	0.406844444444
2	6028	30.373199214329	0.101666666667
2	6056	30.410703859957	0.101666666667
2	6238	30.614103859957	0.101666666667
2	6269	30.615770526624	0.103333333334
2	6292	30.621868728626	0.203333333334
2	6505	30.866065492923	0.406666666668
2	6511	30.883199214331	0.306666666668
2	6547	31.02860206196	0.2034
2	6743	31.435268728628	0.203333333334
2	6818	31.695722628222	0.101666666667
2	6941	31.904870432403	0.305000000001
2	6982	32.10238929489	0.305000000001
2	7130	32.467271915407	0.101666666667
2	7142	32.468938582074	0.205000000001
2	7178	32.515137099072	0.305266666668
2	7326	33.126803765741	0.306666666668
2	7459	33.937463550491	0.205000000001
2	7533	34.139130217158	0.203333333334
2	7733	34.676139676846	0.203333333334
2	7745	34.681139676847	0.310000000002
2	7885	35.797848050951	0.203333333334
2	7942	35.86582050702	0.101666666667
2	8079	36.069253840354	0.101666666667
2	8089	36.070920507021	0.103333333334
2	8177	36.204514717619	0.406666666668
2	8230	36.479153840354	0.203333333334
2	8358	36.792587309546	0.203333333334
2	8465	36.99592064288	0.203333333334
2	8495	37.092487173688	0.305000000001
3	78	5.476120910307	0.101666666667
3	205	5.666852120044	0.101666666667
3	222	5.682787576975	0.206666666668
3	298	5.870185453378	0.101666666667
3	346	5.875185453379	0.106666666668
3	543	7.097152607215	0.203333333334
3	632	7.303819273883	0.105000000001
3	649	7.320211190231	0.203333333334
3	692	7.442147608813	0.203333333334
3	774	7.726900079121	0.203355555556
3	915	7.90676519596	0.206666666668
3	1008	8.008431862627	0.105000000001
3	1075	8.133566745789	0.203333333334
3	1181	9.182796753736	0.103333333334
3	1312	9.594463420405	0.210000000002
3	1398	11.741575404868	0.101666666667
3	1515	11.948242071536	0.206666666668
3	1720	13.630131975282	0.211666666669
3	1794	13.825131975281	0.203333333334
3	1886	14.26784038815	0.105000000001
3	1984	14.545610820708	0.305000000001
3	1999	14.572840388151	0.206666666668
3	2046	15.15561082071	0.305000000001
3	2120	15.295674634832	0.203333333334
3	2260	15.702385745944	0.203377777778
3	2300	15.770610820713	0.310000000002
3	2463	16.11571907928	0.210000000002
3	2645	16.55087915025	0.105000000001
3	2668	16.555879150251	0.211666666669
3	2835	17.103302218852	0.211666666669
3	2910	17.298302218851	0.101666666667
3	3066	17.867606533359	0.211666666669
3	3168	18.167606533359	0.206666666668
3	3334	19.104793018283	0.206666666668
3	3359	19.203126351616	0.203333333334
3	3549	22.176325203424	0.311666666669
3	3608	22.376325203424	0.105000000001
3	3868	23.31433930137	0.105000000001
3	3877	23.316005968037	0.208333333335
3	4043	23.61246110607	0.106666666668
3	4194	23.776395575515	0.311666666669
3	4267	23.874728908848	0.206666666668
3	4358	24.020794439405	0.210000000002
3	4496	24.626464750312	0.103333333334
3	4541	24.732598389665	0.203333333334
3	4687	25.022311410483	0.106666666668
3	4717	25.038131416981	0.210000000002
3	4918	25.395209208518	0.105000000001
3	5046	25.595209208518	0.203333333334
3	5066	25.632311410485	0.310000000002
3	5230	27.026734917826	0.211666666669
3	5307	27.221734917825	0.101666666667
3	5400	27.37981139834	0.105000000001
3	5543	27.684811398341	0.206666666668
3	5701	28.707673395041	0.105000000001
3	5724	28.712673395042	0.211666666669
3	5912	30.159398826255	0.106666666668
3	6036	30.374865880996	0.103333333334
3	6240	30.614103859957	0.101666666667
3	6393	30.719103859958	0.105000000001
3	6427	30.769398826257	0.310000000002
3	6451	30.786532547665	0.210000000002
3	6602	31.133602061961	0.105000000001
3	6622	31.187255961555	0.203333333334
3	6752	31.438602061962	0.206666666668
3	6776	31.594055961555	0.203466666666
3	6955	32.000722628223	0.203333333334
3	7131	32.467271915407	0.101666666667
3	7169	32.473938582075	0.210000000002
3	7174	32.474626964823	0.203333333334
3	7305	33.030137099075	0.210000000002
3	7471	33.940796883825	0.208333333335
3	7539	34.142463550492	0.206666666668
3	7693	34.577806343513	0.105000000001
3	7716	34.582806343514	0.211666666669
3	7873	35.764153840353	0.101666666667
3	7911	35.801181384285	0.206666666668
3	7999	35.967587173687	0.101766666667
3	8129	36.107848050953	0.310000000002
3	8328	36.694253976213	0.105000000001
3	8471	36.999253976214	0.206666666668
4	79	5.476120910307	0.101666666667
4	231	5.684454243642	0.208333333335
4	354	5.914328528734	0.203333333334
4	397	5.976852120046	0.208333333335
4	419	6.076852120046	0.206666666668
4	509	6.995485940548	0.101666666667
4	674	7.40548594055	0.206666666668
4	923	7.908431862627	0.208333333335
4	972	7.933566745789	0.206666666668
4	1031	8.031900079122	0.101666666667
4	1069	8.111765195961	0.208333333335
4	1174	9.181130087069	0.101666666667
4	1338	9.70279675374	0.318333333337
4	1399	11.741575404868	0.101666666667
4	1524	11.949908738203	0.208333333335
4	1747	13.723465308614	0.101666666667
4	1782	13.738465308617	0.320000000004
4	1814	13.959507054815	0.203333333334
4	1903	14.366173721483	0.203333333334
4	1942	14.372840388151	0.210000000002
4	2140	15.362277487378	0.206666666668
4	2257	15.677277487381	0.21666666667
4	2382	15.909052412612	0.206666666668
4	2499	16.224052412615	0.318333333337
4	2702	16.654212483584	0.208333333335
4	2715	16.664212483586	0.320000000004
4	2895	17.211635552187	0.320000000004
4	2911	17.298302218851	0.101666666667
4	3122	17.975939866694	0.320000000004
4	3174	18.169273200026	0.208333333335
4	3192	18.694759684948	0.101666666667
4	3204	18.898126351615	0.1017
4	3313	19.101459684949	0.101666666667
4	3535	22.082991870092	0.218333333337
4	3636	22.477991870091	0.206666666668
4	3774	23.209339301369	0.101666666667
4	3827	23.261351131068	0.203333333334
4	3908	23.417672634704	0.208333333335
4	4058	23.66806224218	0.203333333334
4	4114	23.683062242183	0.218333333337
4	4139	23.71246110607	0.206666666668
4	4394	24.12912777274	0.318333333337
4	4489	24.624798083645	0.101666666667
4	4751	25.122311410483	0.206666666668
4	4778	25.146464750316	0.318333333337
4	4979	25.493542541851	0.101666666667
4	5011	25.500209208519	0.210000000002
4	5040	25.538978077153	0.21666666667
4	5292	27.135068251161	0.320000000004
4	5308	27.221734917825	0.101666666667
4	5469	27.483144731674	0.208333333335
4	5549	27.686478065008	0.208333333335
4	5752	28.811006728375	0.208333333335
4	5765	28.821006728377	0.320000000004
4	5949	30.259398826255	0.206666666668
4	6029	30.373199214329	0.101666666667
4	6241	30.614103859957	0.101666666667
4	6326	30.676065492925	0.21666666667
4	6481	30.820770526625	0.206666666668
4	6494	30.82520206196	0.203333333334
4	6520	30.894865881	0.318333333337
4	6630	31.231935395294	0.203333333334
4	6668	31.236935395295	0.208333333335
4	6891	31.800722628223	0.206666666668
4	6916	31.899055961556	0.101666666667
4	7132	32.467271915407	0.101666666667
4	7170	32.473938582075	0.210000000002
4	7335	33.13847043241	0.318333333337
4	7342	33.32566355049	0.203333333334
4	7362	33.73246355049	0.203466666666
4	7545	34.144130217159	0.208333333335
4	7744	34.681139676847	0.208333333335
4	7757	34.691139676849	0.320000000004
4	7768	35.187736939839	0.203333333334
4	7788	35.594514717617	0.203444444444
4	8067	36.014514717621	0.21666666667
4	8158	36.174253840355	0.206666666668
4	8215	36.385787309546	0.203333333334
4	8357	36.792587309546	0.203333333334
4	8396	36.799253976214	0.210000000002
5	140	5.565185453377	0.101666666667
5	160	5.579454243641	0.205000000001
5	221	5.682787576975	0.206666666668
5	243	5.7109951954	0.203333333334
5	249	5.768518786711	0.101666666667
5	385	5.975185453379	0.105000000001
5	517	6.997152607215	0.103333333334
5	677	7.407152607217	0.208333333335
5	698	7.496742973736	0.203333333334
5	871	7.833566745789	0.106666666668
5	884	7.903431862626	0.203333333334
5	922	7.908431862627	0.208333333335
5	1041	8.033566745789	0.103333333334
5	1212	9.28613008707	0.206666666668
5	1282	9.494463420405	0.110000000002
5	1466	11.844908738202	0.205000000001
5	1514	11.948242071536	0.206666666668
5	1653	13.530131975282	0.111666666669
5	1757	13.725131975281	0.103333333334
5	1785	13.756173721481	0.203333333334
5	1824	14.162840388149	0.203333333334
5	1998	14.572840388151	0.206666666668
5	2109	15.262277487378	0.106666666668
5	2243	15.670610820713	0.210000000002
5	2335	15.809052412612	0.106666666668
5	2425	16.01571907928	0.110000000002
5	2502	16.242512483582	0.101666666667
5	2551	16.445879150249	0.101666666667
5	2601	16.455879150251	0.111666666669
5	2795	17.003302218852	0.111666666669
5	2947	17.401635552185	0.205000000001
5	3032	17.767606533359	0.111666666669
5	3167	18.167606533359	0.206666666668
5	3323	19.103126351616	0.103333333334
5	3345	19.108126351617	0.210000000002
5	3521	22.076325203424	0.211666666669
5	3639	22.479658536758	0.208333333335
5	3706	23.005961523591	0.101666666667
5	3771	23.209339301369	0.101666666667
5	3811	23.212672634703	0.105000000001
5	4100	23.676395575515	0.211666666669
5	4143	23.715794439404	0.210000000002
5	4266	23.874728908848	0.206666666668
5	4314	23.920794439405	0.110000000002
5	4535	24.729798083646	0.206666666668
5	4645	24.938131416981	0.110000000002
5	4731	25.086820319628	0.101666666667
5	4755	25.125644743817	0.210000000002
5	4804	25.290209208517	0.101722222222
5	4991	25.495209208518	0.103333333334
5	5026	25.532311410485	0.210000000002
5	5192	26.926734917826	0.111666666669
5	5371	27.325068251159	0.205000000001
5	5470	27.483144731674	0.208333333335
5	5542	27.684811398341	0.206666666668
5	5573	28.39927339504	0.101666666667
5	5612	28.60267339504	0.101666666667
5	5662	28.612673395042	0.111666666669
5	5953	30.262732159589	0.210000000002
5	6110	30.47819921433	0.206666666668
5	6312	30.669398826257	0.210000000002
5	6349	30.686532547665	0.110000000002
5	6384	30.717437193291	0.205000000001
5	6487	30.822437193292	0.208333333335
5	6669	31.236935395295	0.208333333335
5	6751	31.438602061962	0.206666666668
5	6839	31.700722628223	0.106666666668
5	6926	31.900722628223	0.103333333334
5	7153	32.470605248741	0.206666666668
5	7191	32.570605248741	0.205000000001
5	7275	32.930137099075	0.110000000002
5	7464	33.939130217158	0.206666666668
5	7538	34.142463550492	0.206666666668
5	7565	34.269395232401	0.101666666667
5	7604	34.472806343512	0.101666666667
5	7654	34.482806343514	0.111666666669
5	7918	35.802848050952	0.208333333335
5	8052	36.007848050953	0.210000000002
5	8101	36.072587173688	0.105000000001
5	8168	36.182453976212	0.203333333334
5	8190	36.27582050702	0.203333333334
5	8255	36.589253976212	0.203466666666
5	8470	36.999253976214	0.206666666668
6	158	5.579454243641	0.103333333334
6	195	5.587787576976	0.213333333336
6	329	5.871852120045	0.103333333334
6	415	6.075185453379	0.205000000001
6	439	6.283819273879	0.305000000001
6	467	6.893819273881	0.305000000001
6	708	7.50548594055	0.306666666668
6	717	7.523544523565	0.203333333334
6	824	7.805098529293	0.105000000001
6	935	7.930233412455	0.203333333334
6	971	7.933566745789	0.206666666668
6	1000	8.00676519596	0.103333333334
6	1209	9.284463420403	0.205000000001
6	1309	9.592796753738	0.208333333335
6	1464	11.844908738202	0.103333333334
6	1501	11.853242071537	0.213333333336
6	1572	13.215087530835	0.203333333334
6	1675	13.621798641947	0.203333333334
6	1717	13.628465308615	0.210000000002
6	1885	14.26784038815	0.105000000001
6	1960	14.469507054817	0.103333333334
6	2139	15.362277487378	0.206666666668
6	2200	15.565610820712	0.105000000001
6	2381	15.909052412612	0.206666666668
6	2460	16.114052412613	0.208333333335
6	2637	16.549212483583	0.103333333334
6	2667	16.555879150251	0.211666666669
6	2832	17.101635552185	0.210000000002
6	2946	17.401635552185	0.205000000001
6	3063	17.865939866692	0.210000000002
6	3135	18.064273200025	0.103333333334
6	3198	18.796426351615	0.101666666667
6	3239	18.999793018282	0.101666666667
6	3277	19.003126351616	0.105000000001
6	3478	21.971325203423	0.106666666668
6	3654	22.577991870091	0.306666666668
6	3692	22.904294856924	0.101666666667
6	3722	23.107672634702	0.101711111111
6	3859	23.312672634703	0.103333333334
6	3989	23.571395575514	0.106666666668
6	4166	23.771395575514	0.103333333334
6	4239	23.814127772737	0.308333333335
6	4355	24.019127772738	0.208333333335
6	4532	24.728131416979	0.205000000001
6	4714	25.036464750314	0.208333333335
6	4781	25.188486986295	0.101666666667
6	4795	25.22397807715	0.308333333335
6	4876	25.391875875184	0.101666666667
6	4917	25.395209208518	0.105000000001
6	4940	25.427311410484	0.105000000001
6	5227	27.025068251159	0.210000000002
6	5370	27.325068251159	0.205000000001
6	5499	27.581478065007	0.103333333334
6	5501	27.581478065007	0.306666666668
6	5693	28.706006728374	0.103333333334
6	5723	28.712673395042	0.211666666669
6	6011	30.361065492922	0.308333333335
6	6107	30.476532547663	0.205000000001
6	6166	30.564398826256	0.105000000001
6	6383	30.717437193291	0.205000000001
6	6448	30.784865880998	0.208333333335
6	6527	30.920770526625	0.306666666668
6	6702	31.335268728628	0.103333333334
6	6704	31.335268728628	0.306666666668
6	6734	31.390589294889	0.203333333334
6	6854	31.797389294889	0.203333333334
6	6890	31.800722628223	0.206666666668
6	7080	32.367271915407	0.103333333334
6	7190	32.570605248741	0.205000000001
6	7302	33.028470432408	0.208333333335
6	7406	33.835796883824	0.103333333334
6	7496	34.039130217158	0.103333333334
6	7685	34.576139676846	0.103333333334
6	7715	34.582806343514	0.211666666669
6	7845	35.699514717618	0.105000000001
6	7960	35.902848050952	0.105000000001
6	8151	36.172587173688	0.205000000001
6	8327	36.694253976213	0.105000000001
6	8348	36.787487173687	0.305000000001
6	8424	36.89592064288	0.103333333334
6	8545	37.397787173689	0.305300000001
7	198	5.599475064946	0.203333333334
7	213	5.679454243641	0.203333333334
7	240	5.687787576976	0.313333333336
7	363	5.971852120045	0.203333333334
7	432	6.175185453379	0.305000000001
7	507	6.995485940548	0.101666666667
7	731	7.60548594055	0.406666666668
7	910	7.905098529293	0.205000000001
7	1028	8.031900079122	0.101666666667
7	1042	8.033566745789	0.306666666668
7	1059	8.10676519596	0.203333333334
7	1226	9.384463420403	0.305000000001
7	1326	9.689463420404	0.305000000001
7	1506	11.944908738202	0.203333333334
7	1533	11.953242071537	0.313333333336
7	1744	13.723465308614	0.101666666667
7	1758	13.725131975281	0.306666666668
7	1929	14.36784038815	0.205000000001
7	1992	14.569507054817	0.203333333334
7	2028	14.850610820709	0.305000000001
7	2153	15.460610820711	0.305000000001
7	2175	15.462277487378	0.306666666668
7	2409	16.009052412612	0.306666666668
7	2487	16.210719079279	0.305000000001
7	2690	16.649212483583	0.203333333334
7	2708	16.655879150251	0.311666666669
7	2878	17.198302218851	0.306666666668
7	2962	17.501635552185	0.305000000001
7	3103	17.962606533358	0.306666666668
7	3161	18.164273200025	0.203333333334
7	3310	19.101459684949	0.101666666667
7	3324	19.103126351616	0.205000000001
7	3397	21.051280758975	0.406666666668
7	3433	21.864658536755	0.406711111112
7	3667	22.677991870091	0.406666666668
7	3712	23.058017797734	0.203333333334
7	3772	23.209339301369	0.101666666667
7	3898	23.412672634703	0.203333333334
7	3911	23.464728908846	0.203377777778
7	4257	23.871395575514	0.203333333334
7	4297	23.914127772737	0.408333333335
7	4378	24.115794439404	0.305000000001
7	4431	24.508844743815	0.406666666668
7	4556	24.828131416979	0.305000000001
7	4766	25.13313141698	0.305000000001
7	4837	25.322311410483	0.406666666668
7	4859	25.32397807715	0.408333333335
7	4976	25.493542541851	0.101666666667
7	4992	25.495209208518	0.205000000001
7	5275	27.121734917825	0.306666666668
7	5420	27.425068251159	0.305000000001
7	5533	27.681478065007	0.406666666668
7	5537	27.683144731674	0.205000000001
7	5740	28.806006728374	0.203333333334
7	5758	28.812673395042	0.311666666669
7	5814	29.645887715143	0.406666666668
7	6066	30.459398826255	0.406666666668
7	6088	30.461065492922	0.408333333335
7	6196	30.576532547663	0.305000000001
7	6467	30.817437193291	0.305000000001
7	6508	30.881532547664	0.305000000001
7	6544	31.020770526625	0.406666666668
7	6742	31.435268728628	0.406666666668
7	6746	31.436935395295	0.205000000001
7	6913	31.899055961556	0.101666666667
7	6927	31.900722628223	0.306666666668
7	7128	32.467271915407	0.203333333334
7	7212	32.670605248741	0.305000000001
7	7323	33.125137099074	0.305000000001
7	7436	33.935796883824	0.203333333334
7	7532	34.139130217158	0.203333333334
7	7732	34.676139676846	0.203333333334
7	7750	34.682806343514	0.311666666669
7	7778	35.391070273173	0.203333333334
7	7884	35.797848050951	0.203333333334
7	7907	35.799514717618	0.205000000001
7	8187	36.272587173688	0.305000000001
7	8383	36.794253976213	0.205000000001
7	8464	36.99592064288	0.203333333334
8	223	5.682787576975	0.308333333335
8	282	5.786120910309	0.310000000002
8	300	5.870185453378	0.101666666667
8	422	6.078518786713	0.208333333335
8	554	7.100485940549	0.206666666668
8	711	7.510485940551	0.311666666669
8	978	7.936900079123	0.210000000002
8	992	8.005098529293	0.101666666667
8	1016	8.011765195961	0.311666666669
8	1082	8.136900079123	0.206666666668
8	1117	8.774463420401	0.305000000001
8	1225	9.384463420403	0.305000000001
8	1250	9.389463420404	0.310000000002
8	1516	11.948242071536	0.308333333335
8	1536	12.05157540487	0.310000000002
8	1554	13.011754197501	0.203333333334
8	1578	13.236869121968	0.305000000001
8	1592	13.418465308613	0.203377777778
8	1801	13.828465308615	0.206666666668
8	1869	14.264507054816	0.101666666667
8	2017	14.676173721485	0.310000000002
8	2143	15.365610820712	0.210000000002
8	2186	15.499007968166	0.203333333334
8	2303	15.773944154047	0.313333333336
8	2349	15.905719079278	0.203333333334
8	2387	15.912385745946	0.210000000002
8	2477	16.140845816915	0.101666666667
8	2514	16.344212483582	0.1017
8	2629	16.547545816916	0.101666666667
8	2810	17.045839866689	0.305000000001
8	2838	17.106635552186	0.215000000003
8	2965	17.504968885519	0.308333333335
8	2975	17.65593986669	0.3051
8	3182	18.270939866693	0.310000000002
8	3366	19.20645968495	0.206666666668
8	3372	19.211459684951	0.313333333336
8	3552	22.179658536758	0.315000000003
8	3657	22.582991870092	0.311666666669
8	3759	23.200627772736	0.305000000001
8	3848	23.311005968036	0.101666666667
8	3878	23.316005968037	0.208333333335
8	4198	23.779728908849	0.315000000003
8	4208	23.810794439403	0.305000000001
8	4245	23.819127772738	0.313333333336
8	4329	23.978062242182	0.310000000002
8	4580	24.83313141698	0.310000000002
8	4720	25.041464750315	0.213333333336
8	4798	25.228978077151	0.313333333336
8	4878	25.391875875184	0.101666666667
8	5053	25.598542541852	0.206666666668
8	5069	25.635644743819	0.313333333336
8	5093	26.20490158449	0.305000000001
8	5129	26.815068251157	0.305166666666
8	5423	27.428401584493	0.308333333335
8	5524	27.586478065008	0.311666666669
8	5557	27.788144731675	0.310000000002
8	5567	28.297606728373	0.101666666667
8	5579	28.501006728373	0.101733333333
8	5685	28.704340061707	0.101666666667
8	6014	30.366065492923	0.313333333336
8	6220	30.581532547664	0.310000000002
8	6430	30.772732159591	0.313333333336
8	6454	30.789865880999	0.213333333336
8	6482	30.820770526625	0.308333333335
8	6530	30.925770526626	0.311666666669
8	6727	31.340268728629	0.311666666669
8	6770	31.541935395296	0.310000000002
8	6900	31.804055961557	0.210000000002
8	6962	32.004055961557	0.206666666668
8	6999	32.209870432404	0.305000000001
8	7036	32.271293631489	0.203333333334
8	7201	32.573938582075	0.310000000002
8	7215	32.673938582075	0.308333333335
8	7225	32.820137099073	0.305000000001
8	7514	34.042463550492	0.310000000002
8	7553	34.167728565734	0.101666666667
8	7559	34.245796883826	0.310000000002
8	7571	34.371139676845	0.101744444444
8	7677	34.574473010179	0.101666666667
8	7970	35.906181384286	0.311666666669
8	8132	36.111181384287	0.313333333336
8	8162	36.175920507022	0.208333333335
8	8310	36.690920642879	0.101666666667
8	8502	37.102587309548	0.310000000002
9	232	5.684454243642	0.310000000002
9	285	5.787787576976	0.311666666669
9	301	5.870185453378	0.101666666667
9	425	6.08018545338	0.210000000002
9	557	7.102152607216	0.208333333335
9	714	7.512152607218	0.313333333336
9	738	7.645480942147	0.203333333334
9	981	7.93856674579	0.211666666669
9	993	8.005098529293	0.101666666667
9	1019	8.013431862628	0.313333333336
9	1085	8.13856674579	0.208333333335
9	1254	9.391130087071	0.311666666669
9	1315	9.597796753739	0.213333333336
9	1525	11.949908738203	0.310000000002
9	1539	12.053242071537	0.311666666669
9	1723	13.633465308616	0.215000000003
9	1804	13.830131975282	0.208333333335
9	1870	14.264507054816	0.101666666667
9	2020	14.677840388152	0.311666666669
9	2146	15.367277487379	0.211666666669
9	2306	15.775610820714	0.315000000003
9	2391	15.914052412613	0.211666666669
9	2466	16.119052412614	0.213333333336
9	2508	16.281535552182	0.305000000001
9	2630	16.547545816916	0.101666666667
9	2671	16.559212483585	0.215000000003
9	2734	16.891635552183	0.3051
9	2968	17.506635552186	0.310000000002
9	3069	17.870939866693	0.215000000003
9	3185	18.27260653336	0.311666666669
9	3369	19.208126351617	0.208333333335
9	3375	19.213126351618	0.315000000003
9	3555	22.181325203425	0.31666666667
9	3660	22.584658536759	0.313333333336
9	3849	23.311005968036	0.101666666667
9	3882	23.317672634704	0.210000000002
9	4201	23.781395575516	0.31666666667
9	4249	23.820794439405	0.315000000003
9	4332	23.979728908849	0.311666666669
9	4361	24.024127772739	0.213333333336
9	4401	24.218098083644	0.305000000001
9	4468	24.529265056331	0.203333333334
9	4555	24.828131416979	0.305000000001
9	4584	24.834798083647	0.311666666669
9	4801	25.230644743818	0.315000000003
9	4879	25.391875875184	0.101666666667
9	5056	25.600209208519	0.208333333335
9	5072	25.637311410486	0.315000000003
9	5233	27.03006825116	0.215000000003
9	5426	27.43006825116	0.310000000002
9	5528	27.588144731675	0.313333333336
9	5560	27.789811398342	0.311666666669
9	5686	28.704340061707	0.101666666667
9	5727	28.716006728376	0.215000000003
9	5846	29.966465880995	0.305000000001
9	6017	30.36773215959	0.315000000003
9	6195	30.576532547663	0.305000000001
9	6224	30.583199214331	0.311666666669
9	6433	30.774398826258	0.315000000003
9	6488	30.822437193292	0.310000000002
9	6536	30.927437193293	0.313333333336
9	6731	31.341935395296	0.313333333336
9	6773	31.543602061963	0.311666666669
9	6904	31.805722628224	0.211666666669
9	6965	32.005722628224	0.208333333335
9	7205	32.575605248742	0.311666666669
9	7218	32.675605248742	0.310000000002
9	7308	33.033470432409	0.213333333336
9	7522	34.044130217159	0.311666666669
9	7562	34.247463550493	0.311666666669
9	7678	34.574473010179	0.101666666667
9	7719	34.586139676848	0.215000000003
9	7977	35.907848050953	0.313333333336
9	8136	36.112848050954	0.315000000003
9	8165	36.177587173689	0.210000000002
9	8311	36.690920642879	0.101666666667
9	8505	37.104253976215	0.311666666669

