version 2
run General-48-20190610-18:04:07-15396
attr configname General
attr datetime 20190610-18:04:07
attr experiment General
attr inifile omnetpp.ini
attr iterationvars ""
attr iterationvarsf ""
attr measurement ""
attr network networks.Net5
attr processid 15396
attr repetition 48
attr replication #48
attr resultdir results
attr runnumber 48
attr seedset 48
param **.appType "\"App\""
param **.app.packetLength "1500 bytes"
param **.app.totalNodes 10
param **.destAddresses "\"0\""
param **.sendIaTime "uniform(5s, 10s)"
param **.sendIaTimeEvil 10ms

vector 0 Net5.rte[6].app endToEndDelay:vector ETV
attr interpolationmode none
attr title "end-to-end delay of arrived packets, vector"
attr unit s
vector 1 Net5.rte[0].app endToEndDelay:vector ETV
attr interpolationmode none
attr title "end-to-end delay of arrived packets, vector"
attr unit s
vector 2 Net5.rte[5].app endToEndDelay:vector ETV
attr interpolationmode none
attr title "end-to-end delay of arrived packets, vector"
attr unit s
vector 3 Net5.rte[7].app endToEndDelay:vector ETV
attr interpolationmode none
attr title "end-to-end delay of arrived packets, vector"
attr unit s
vector 4 Net5.rte[3].app endToEndDelay:vector ETV
attr interpolationmode none
attr title "end-to-end delay of arrived packets, vector"
attr unit s
vector 5 Net5.rte[4].app endToEndDelay:vector ETV
attr interpolationmode none
attr title "end-to-end delay of arrived packets, vector"
attr unit s
vector 6 Net5.rte[1].app endToEndDelay:vector ETV
attr interpolationmode none
attr title "end-to-end delay of arrived packets, vector"
attr unit s
vector 7 Net5.rte[2].app endToEndDelay:vector ETV
attr interpolationmode none
attr title "end-to-end delay of arrived packets, vector"
attr unit s
vector 8 Net5.rte[8].app endToEndDelay:vector ETV
attr interpolationmode none
attr title "end-to-end delay of arrived packets, vector"
attr unit s
vector 9 Net5.rte[9].app endToEndDelay:vector ETV
attr interpolationmode none
attr title "end-to-end delay of arrived packets, vector"
attr unit s
0	15	5.392451338769	0.305000000001
0	65	6.002451338771	0.305000000001
0	328	6.620784672108	0.313333333336
0	570	7.03930584296	0.208333333335
0	579	7.044305842961	0.315000000003
0	621	7.104881883266	0.305000000001
0	682	7.157356263888	0.215000000003
0	768	7.352356263887	0.206666666668
0	884	7.714915216601	0.305000000001
0	909	7.719915216602	0.310000000002
0	1149	8.052418811092	0.310000000002
0	1196	8.257418811093	0.311666666669
0	1209	8.570550803195	0.101666666667
0	1221	8.773884136529	0.101666666667
0	1331	8.977217469863	0.101666666667
0	1595	9.573504607711	0.308333333335
0	1621	9.676837941045	0.310000000002
0	1820	10.074566345768	0.311666666669
0	1836	10.172899679101	0.308333333335
0	2027	10.741679864595	0.315000000003
0	2059	10.940013197928	0.310000000002
0	2240	12.96019759663	0.308333333335
0	2261	13.061864263297	0.206666666668
0	2346	14.204281214758	0.101666666667
0	2479	14.417614548094	0.213333333336
0	2727	14.912878568484	0.101666666667
0	2760	14.919545235152	0.210000000002
0	2840	15.046080364833	0.308333333335
0	2853	15.068603907845	0.305000000001
0	2949	15.356080364835	0.313333333336
0	2991	15.455217622653	0.203333333334
0	3064	15.678703907846	0.305000000001
0	3089	15.683703907847	0.310000000002
0	3359	16.835493413983	0.308333333335
0	3383	16.938826747317	0.310000000002
0	3393	17.088654856263	0.305000000001
0	3431	17.698721522931	0.305066666667
0	3712	18.054492855098	0.206666666668
0	3817	18.259492855099	0.310000000002
0	3830	18.315388189601	0.311666666669
0	3897	20.189114966629	0.203333333334
0	3907	20.255739172122	0.305000000001
0	4089	20.609074993293	0.101666666667
0	4112	20.614074993294	0.310000000002
0	4205	20.865905838789	0.305000000001
0	4238	20.874239172124	0.313333333336
0	4395	21.54261718624	0.101666666667
0	4600	21.957617186243	0.313333333336
0	4754	22.182501718814	0.208333333335
0	4760	22.187501718815	0.315000000003
0	4925	22.689280663563	0.310000000002
0	4960	22.892613996897	0.310000000002
0	5198	24.365219898449	0.315000000003
0	5230	24.563553231782	0.310000000002
0	5378	26.321127366807	0.101666666667
0	5569	26.527794033475	0.206666666668
0	5593	26.577229484478	0.315000000003
0	5708	26.944707738136	0.305000000001
0	5721	26.980562817812	0.311666666669
0	5836	27.554907738136	0.305000000001
0	5861	27.561574404804	0.311666666669
0	6111	29.073333291606	0.101666666667
0	6134	29.078333291607	0.310000000002
0	6332	29.947523055246	0.310000000002
0	6360	30.049189721913	0.208333333335
0	6438	30.650924891299	0.305000000001
0	6561	30.940195723313	0.311666666669
0	6633	31.145195723314	0.313333333336
0	6650	31.261091557966	0.305166666666
0	6974	31.728760191259	0.206666666668
0	7098	31.877758224636	0.311666666669
0	7104	31.93376019126	0.310000000002
0	7259	32.156976957649	0.311666666669
0	7275	32.255310290982	0.308333333335
0	7350	32.880184072139	0.101666666667
0	7510	33.291850738808	0.310000000002
0	7544	33.639938053808	0.305000000001
0	7764	34.057924034174	0.313333333336
0	7836	34.250204720477	0.305000000001
0	7868	34.255204720478	0.310000000002
0	7889	34.262924034175	0.213333333336
0	8190	35.299428110597	0.206666666668
0	8196	35.304428110598	0.313333333336
0	8309	35.570452586285	0.101666666667
0	8342	35.577119252953	0.210000000002
0	8526	37.284131522241	0.208333333335
0	8557	37.485798188908	0.308333333335
0	8752	38.483388485535	0.310000000002
0	8780	38.585055152202	0.208333333335
0	8963	39.464659157669	0.206666666668
0	9085	39.874659157671	0.311666666669
0	9228	40.410295219312	0.208333333335
0	9401	40.715295219313	0.310000000002
0	9415	40.769692180648	0.101666666667
0	9457	40.781358847317	0.215000000003
0	9683	42.661730889518	0.206666666668
0	9699	42.668397556186	0.315000000003
0	9737	43.560749149316	0.305000000001
0	9867	44.171049149318	0.305000000001
0	9892	44.177715815986	0.311666666669
0	10126	44.703840958449	0.206666666668
0	10306	44.931685038294	0.208333333335
0	10318	45.00884095845	0.308333333335
0	10398	45.236685038295	0.310000000002
0	10629	46.045102030021	0.310000000002
0	10864	46.253435363356	0.213333333336
0	10904	46.269127703457	0.310000000002
0	11016	46.370794370124	0.208333333335
0	11032	46.382700826048	0.101666666667
0	11067	46.39270082605	0.315000000003
0	11408	47.756709717518	0.315000000003
1	37	5.69745133877	0.305000000001
1	51	5.846058711243	0.305000000001
1	177	6.307451338772	0.305000000001
1	199	6.309118005439	0.306666666668
1	556	7.034305842959	0.305000000001
1	631	7.135972509626	0.305000000001
1	707	7.247356263886	0.101666666667
1	721	7.249022930553	0.306666666668
1	885	7.714915216601	0.305000000001
1	1059	7.945752144424	0.203333333334
1	1109	8.019915216602	0.305000000001
1	1202	8.352418811092	0.406666666668
1	1392	9.07888413653	0.203333333334
1	1410	9.085550803198	0.311666666669
1	1585	9.570171274377	0.203333333334
1	1612	9.578504607712	0.313333333336
1	1789	10.019990975702	0.203333333334
1	1830	10.169566345767	0.406666666668
1	1833	10.171233012434	0.306666666668
1	1852	10.426679864592	0.203355555556
1	2035	10.83334653126	0.203333333334
1	2216	12.956864263296	0.101666666667
1	2230	12.958530929963	0.306666666668
1	2407	14.305947881425	0.203333333334
1	2490	14.432680364831	0.305000000001
1	2506	14.509281214759	0.305000000001
1	2798	15.014545235151	0.203333333334
1	2811	15.021211901819	0.311666666669
1	2814	15.042747031499	0.305000000001
1	2836	15.044413698166	0.306666666668
1	3065	15.678703907846	0.305000000001
1	3165	15.983703907847	0.305000000001
1	3349	16.832160080649	0.203333333334
1	3376	16.840493413984	0.313333333336
1	3582	17.949492855097	0.101666666667
1	3660	18.005388189599	0.306666666668
1	3769	18.152826188431	0.203333333334
1	3836	18.4103881896	0.406666666668
1	4086	20.609074993293	0.305000000001
1	4159	20.71074165996	0.203333333334
1	4259	20.969239172123	0.408333333335
1	4329	21.17090583879	0.305000000001
1	4344	21.237550519573	0.203333333334
1	4429	21.644283852907	0.203333333334
1	4454	21.645950519574	0.205000000001
1	4739	22.177501718813	0.305000000001
1	4769	22.27916838548	0.305000000001
1	4847	22.582613996895	0.203333333334
1	4939	22.785947330229	0.203333333334
1	4982	23.64346434289	0.203333333334
1	4996	23.776264013789	0.305000000001
1	5020	24.050219898446	0.203422222222
1	5206	24.456886565114	0.203333333334
1	5252	25.448718373363	0.406666666668
1	5337	26.262229484475	0.406844444444
1	5484	26.422794033474	0.101666666667
1	5500	26.424460700141	0.205000000001
1	5731	27.075562817811	0.406666666668
1	5816	27.454907738136	0.205000000001
1	5936	27.859907738137	0.305000000001
1	6108	29.073333291606	0.305000000001
1	6147	29.174999958273	0.203333333334
1	6254	29.840856388578	0.203333333334
1	6370	30.145856388579	0.305000000001
1	6387	30.425062389978	0.203333333334
1	6488	30.831862389978	0.203333333334
1	6511	30.833529056645	0.205000000001
1	6827	31.567758224634	0.306666666668
1	6856	31.623760191258	0.101666666667
1	7034	31.827093524592	0.203333333334
1	7174	31.972758224635	0.406666666668
1	7269	32.251976957648	0.406666666668
1	7272	32.253643624315	0.306666666668
1	7410	32.983517405473	0.205000000001
1	7481	33.18518407214	0.203333333334
1	7795	34.152924034173	0.408333333335
1	7837	34.250204720477	0.305000000001
1	7909	34.35459070084	0.305000000001
1	7981	34.555204720478	0.305000000001
1	8128	35.194428110596	0.101666666667
1	8142	35.196094777263	0.205000000001
1	8354	35.672119252952	0.203333333334
1	8367	35.67878591962	0.311666666669
1	8535	37.380798188907	0.305000000001
1	8554	37.482464855574	0.305000000001
1	8670	38.376721818867	0.203333333334
1	8792	38.681721818868	0.305000000001
1	8841	39.090146304873	0.305000000001
1	8913	39.359659157668	0.101666666667
1	8969	39.514052384167	0.406666666668
1	9095	39.96965915767	0.406666666668
1	9247	40.506961885978	0.305000000001
1	9315	40.608628552645	0.203333333334
1	9470	40.871358847315	0.203333333334
1	9488	40.878025513983	0.311666666669
1	9502	42.149986445072	0.101666666667
1	9514	42.353397556183	0.101744444444
1	9618	42.556730889517	0.101666666667
1	9837	44.071049149318	0.205000000001
1	9995	44.476049149319	0.305000000001
1	10056	44.598840958448	0.101666666667
1	10315	45.005507625116	0.305000000001
1	10332	45.02835170496	0.305000000001
1	10373	45.130018371627	0.203333333334
1	10448	45.670811937157	0.203333333334
1	10605	46.04010203002	0.305000000001
1	10679	46.077700826047	0.203555555556
1	10750	46.162461036789	0.203333333334
1	10986	46.345102030021	0.305000000001
1	11084	46.46746103679	0.305000000001
1	11091	46.484367492715	0.203333333334
1	11125	46.627976384179	0.406666666668
1	11244	47.441709717515	0.407066666668
2	126	6.11411800544	0.111666666669
2	285	6.517451338774	0.210000000002
2	493	6.935972509626	0.105000000001
2	506	6.940972509627	0.211666666669
2	606	7.054022930554	0.111666666669
2	720	7.249022930553	0.103333333334
2	867	7.616581883268	0.206666666668
2	974	7.824915216603	0.110000000002
2	1087	7.949085477758	0.206666666668
2	1178	8.154085477759	0.208333333335
2	1215	8.672217469862	0.101666666667
2	1254	8.875550803196	0.101666666667
2	1304	8.885550803198	0.111666666669
2	1539	9.470171274377	0.205000000001
2	1593	9.573504607711	0.206666666668
2	1777	9.971233012434	0.208333333335
2	1807	10.069566345767	0.205000000001
2	1966	10.638346531261	0.211666666669
2	2044	10.836679864594	0.206666666668
2	2190	12.856864263296	0.205000000001
2	2229	12.958530929963	0.103333333334
2	2278	13.899270103646	0.101666666667
2	2298	14.102614548091	0.101677777778
2	2438	14.31428121476	0.110000000002
2	2529	14.607856346261	0.101666666667
2	2619	14.811211901817	0.101666666667
2	2664	14.816211901818	0.106666666668
2	2777	14.942747031499	0.205000000001
2	2913	15.252747031501	0.210000000002
2	3048	15.580370574513	0.206666666668
2	3121	15.788703907848	0.110000000002
2	3305	16.732160080649	0.205000000001
2	3357	16.835493413983	0.206666666668
2	3494	17.8103881896	0.111666666669
2	3615	17.951159521764	0.103333333334
2	3777	18.156159521765	0.206666666668
2	3806	18.212054856267	0.208333333335
2	3887	20.100674993292	0.203333333334
2	3999	20.507408326626	0.203333333334
2	4031	20.51074165996	0.206666666668
2	4190	20.77090583879	0.210000000002
2	4275	20.975905838791	0.110000000002
2	4290	21.034217186239	0.203333333334
2	4354	21.440950519573	0.2034
2	4536	21.854283852909	0.210000000002
2	4708	22.07916838548	0.105000000001
2	4721	22.084168385481	0.211666666669
2	4875	22.585947330229	0.206666666668
2	4945	22.789280663563	0.206666666668
2	5137	24.261886565115	0.211666666669
2	5215	24.460219898448	0.206666666668
2	5284	26.016094033473	0.101666666667
2	5304	26.21946070014	0.1017
2	5499	26.424460700141	0.103333333334
2	5542	26.473896151144	0.211666666669
2	5697	26.877229484478	0.208333333335
2	5824	27.45824107147	0.208333333335
2	5892	27.664907738138	0.110000000002
2	5969	28.564866624939	0.203333333334
2	6050	28.971666624939	0.203333333334
2	6082	28.974999958273	0.206666666668
2	6283	29.844189721912	0.206666666668
2	6324	29.945856388579	0.105000000001
2	6521	30.836862389979	0.208333333335
2	6602	31.04186238998	0.210000000002
2	6713	31.372758224635	0.111666666669
2	6885	31.625426857925	0.103333333334
2	7021	31.774424891302	0.208333333335
2	7040	31.830426857926	0.206666666668
2	7222	32.053643624315	0.208333333335
2	7246	32.151976957648	0.205000000001
2	7285	32.371717405472	0.203333333334
2	7305	32.778517405472	0.203466666666
2	7487	33.188517405474	0.206666666668
2	7684	33.95459070084	0.210000000002
2	7788	34.151871387144	0.206666666668
2	7819	34.159590700841	0.110000000002
2	7931	34.360204720479	0.110000000002
2	8141	35.196094777263	0.103333333334
2	8163	35.201094777264	0.210000000002
2	8174	35.265363697395	0.101666666667
2	8242	35.468785919618	0.101666666667
2	8287	35.473785919619	0.106666666668
2	8463	37.180798188907	0.105000000001
2	8543	37.382464855574	0.205000000001
2	8699	38.380055152201	0.206666666668
2	8744	38.481721818868	0.105000000001
2	8923	39.361325824335	0.103333333334
2	9061	39.771325824337	0.208333333335
2	9166	40.306961885978	0.105000000001
2	9237	40.464592180647	0.101666666667
2	9321	40.611961885979	0.206666666668
2	9336	40.668025513981	0.101666666667
2	9386	40.678025513983	0.111666666669
2	9629	42.558397556184	0.103333333334
2	9656	42.565064222852	0.211666666669
2	9845	44.074382482652	0.208333333335
2	9931	44.28104914932	0.110000000002
2	10066	44.600507625115	0.103333333334
2	10228	44.82835170496	0.105000000001
2	10251	44.905507625116	0.205000000001
2	10379	45.133351704961	0.206666666668
2	10537	45.874145270491	0.203333333334
2	10554	45.941768696687	0.206666666668
2	10732	46.150102030022	0.110000000002
2	10779	46.165794370123	0.206666666668
2	10896	46.26746103679	0.105000000001
2	10916	46.281034159381	0.203333333334
2	10959	46.289367492716	0.211666666669
2	11361	47.653376384184	0.211666666669
3	141	6.151058711244	0.305000000001
3	166	6.217451338774	0.215000000003
3	308	6.535689597217	0.203333333334
3	331	6.622451338775	0.315000000003
3	509	6.942356263885	0.203333333334
3	573	7.040972509627	0.210000000002
3	586	7.045972509628	0.31666666667
3	771	7.354022930554	0.208333333335
3	913	7.721581883269	0.311666666669
3	1045	7.928248549937	0.213333333336
3	1156	8.054085477759	0.311666666669
3	1199	8.25908547776	0.313333333336
3	1332	8.977217469863	0.101666666667
3	1373	8.988884136532	0.215000000003
3	1604	9.575171274378	0.310000000002
3	1624	9.678504607712	0.311666666669
3	1823	10.076233012435	0.313333333336
3	1839	10.174566345768	0.310000000002
3	2030	10.743346531262	0.31666666667
3	2062	10.941679864595	0.311666666669
3	2247	12.961864263297	0.310000000002
3	2264	13.063530929964	0.208333333335
3	2288	14.000936770313	0.101666666667
3	2343	14.204281214758	0.101666666667
3	2374	14.205947881425	0.103333333334
3	2728	14.912878568484	0.101666666667
3	2767	14.921211901819	0.211666666669
3	2844	15.0477470315	0.310000000002
3	2952	15.357747031502	0.315000000003
3	3093	15.685370574514	0.311666666669
3	3154	15.892037241182	0.213333333336
3	3368	16.83716008065	0.310000000002
3	3386	16.940493413984	0.311666666669
3	3564	17.913721522934	0.215000000003
3	3723	18.056159521765	0.208333333335
3	3820	18.261159521766	0.311666666669
3	3833	18.317054856268	0.313333333336
3	4090	20.609074993293	0.101666666667
3	4116	20.615741659961	0.311666666669
3	4242	20.875905838791	0.315000000003
3	4314	21.079239172125	0.213333333336
3	4396	21.54261718624	0.101666666667
3	4603	21.95928385291	0.315000000003
3	4757	22.184168385481	0.210000000002
3	4763	22.189168385482	0.31666666667
3	4933	22.69094733023	0.311666666669
3	4963	22.894280663564	0.311666666669
3	5053	24.08126401379	0.305000000001
3	5201	24.366886565116	0.31666666667
3	5233	24.565219898449	0.311666666669
3	5379	26.321127366807	0.101666666667
3	5572	26.529460700142	0.208333333335
3	5596	26.578896151145	0.31666666667
3	5724	26.982229484479	0.313333333336
3	5865	27.563241071471	0.313333333336
3	5925	27.768241071472	0.213333333336
3	6112	29.073333291606	0.101666666667
3	6138	29.079999958274	0.311666666669
3	6339	29.949189721913	0.311666666669
3	6363	30.05085638858	0.210000000002
3	6568	30.94186238998	0.313333333336
3	6636	31.146862389981	0.315000000003
3	6756	31.476091557969	0.215000000003
3	6985	31.730426857926	0.208333333335
3	7101	31.879424891303	0.313333333336
3	7107	31.935426857927	0.311666666669
3	7262	32.158643624316	0.313333333336
3	7278	32.256976957649	0.310000000002
3	7351	32.880184072139	0.101666666667
3	7513	33.293517405475	0.311666666669
3	7530	33.439524034171	0.305000000001
3	7715	34.049590700839	0.305000000001
3	7768	34.059590700841	0.315000000003
3	7876	34.256871387145	0.311666666669
3	7970	34.463538053813	0.213333333336
3	8193	35.301094777264	0.208333333335
3	8199	35.306094777265	0.315000000003
3	8310	35.570452586285	0.101666666667
3	8349	35.57878591962	0.211666666669
3	8530	37.285798188908	0.210000000002
3	8560	37.487464855575	0.310000000002
3	8759	38.485055152202	0.311666666669
3	8783	38.586721818869	0.210000000002
3	8942	39.395146304874	0.305000000001
3	8966	39.466325824336	0.208333333335
3	9088	39.876325824338	0.313333333336
3	9182	40.36292551398	0.101666666667
3	9233	40.411961885979	0.210000000002
3	9280	40.566358847314	0.101766666667
3	9404	40.71696188598	0.311666666669
3	9416	40.769692180648	0.101666666667
3	9689	42.663397556185	0.208333333335
3	9702	42.670064222853	0.31666666667
3	9896	44.179382482653	0.313333333336
3	9976	44.384382482654	0.213333333336
3	10131	44.705507625116	0.208333333335
3	10311	44.933351704961	0.210000000002
3	10321	45.010507625117	0.310000000002
3	10401	45.238351704962	0.311666666669
3	10412	45.429968696686	0.305000000001
3	10604	46.04010203002	0.305000000001
3	10633	46.046768696688	0.311666666669
3	10911	46.270794370124	0.311666666669
3	11020	46.372461036791	0.210000000002
3	11033	46.382700826048	0.101666666667
3	11070	46.394367492717	0.31666666667
3	11411	47.758376384185	0.31666666667
4	160	6.212451338773	0.210000000002
4	234	6.412451338773	0.105000000001
4	384	6.739022930551	0.203333333334
4	486	6.934305842959	0.205000000001
4	563	7.035972509626	0.205000000001
4	634	7.145689597219	0.203333333334
4	676	7.152356263887	0.210000000002
4	864	7.614915216601	0.205000000001
4	1000	7.845752144424	0.103333333334
4	1039	7.923248549936	0.208333333335
4	1193	8.252418811092	0.306666666668
4	1339	8.97888413653	0.103333333334
4	1369	8.985550803198	0.211666666669
4	1537	9.470171274377	0.103333333334
4	1574	9.478504607712	0.213333333336
4	1806	10.069566345767	0.205000000001
4	1808	10.069566345767	0.306666666668
4	1897	10.53334653126	0.106666666668
4	1995	10.73334653126	0.103333333334
4	2083	12.448508707739	0.203333333334
4	2162	12.855197596629	0.203333333334
4	2198	12.858530929963	0.206666666668
4	2375	14.205947881425	0.103333333334
4	2473	14.412614548093	0.208333333335
4	2737	14.914545235151	0.103333333334
4	2766	14.921211901819	0.211666666669
4	2783	14.944413698166	0.206666666668
4	2867	15.1477470315	0.105000000001
4	3045	15.578703907846	0.205000000001
4	3148	15.887037241181	0.208333333335
4	3303	16.732160080649	0.103333333334
4	3340	16.740493413984	0.213333333336
4	3425	17.644470632874	0.101666666667
4	3509	17.84782618843	0.101688888889
4	3558	17.908721522933	0.210000000002
4	3700	18.052826188431	0.103333333334
4	3827	18.3103881896	0.306666666668
4	3954	20.392448299963	0.203333333334
4	4026	20.509074993293	0.205000000001
4	4097	20.61074165996	0.103333333334
4	4232	20.869239172123	0.308333333335
4	4308	21.074239172124	0.208333333335
4	4411	21.545950519574	0.105000000001
4	4487	21.749283852908	0.105000000001
4	4701	22.077501718813	0.205000000001
4	4747	22.17916838548	0.205000000001
4	4817	22.482613996895	0.103333333334
4	4907	22.685947330229	0.103333333334
4	5068	24.156886565114	0.106666666668
4	5166	24.356886565114	0.103333333334
4	5294	26.11776070014	0.101666666667
4	5376	26.321127366807	0.101666666667
4	5417	26.324460700141	0.105000000001
4	5448	26.368896151143	0.106666666668
4	5718	26.975562817811	0.306666666668
4	5788	27.354907738136	0.105000000001
4	5919	27.763241071471	0.208333333335
4	6077	28.973333291606	0.205000000001
4	6119	29.074999958273	0.103333333334
4	6224	29.740856388578	0.103333333334
4	6353	30.045856388579	0.205000000001
4	6461	30.733529056645	0.105000000001
4	6551	30.936862389979	0.105000000001
4	6683	31.318704635702	0.101666666667
4	6750	31.471091557968	0.210000000002
4	6767	31.522093524591	0.101722222222
4	6964	31.727093524592	0.103333333334
4	7095	31.872758224635	0.306666666668
4	7245	32.151976957648	0.205000000001
4	7247	32.151976957648	0.306666666668
4	7366	32.883517405473	0.105000000001
4	7445	33.08518407214	0.103333333334
4	7753	34.052924034173	0.308333333335
4	7782	34.150204720477	0.205000000001
4	7880	34.257924034174	0.208333333335
4	7964	34.458538053812	0.208333333335
4	8006	34.88937255504	0.101666666667
4	8051	35.092761443929	0.101666666667
4	8089	35.096094777263	0.105000000001
4	8319	35.572119252952	0.103333333334
4	8348	35.57878591962	0.211666666669
4	8505	37.280798188907	0.205000000001
4	8542	37.382464855574	0.205000000001
4	8636	38.276721818867	0.103333333334
4	8773	38.581721818868	0.205000000001
4	8786	38.647725824332	0.305000000001
4	8865	39.257992491001	0.305266666668
4	9082	39.86965915767	0.306666666668
4	9215	40.406961885978	0.205000000001
4	9256	40.508628552645	0.103333333334
4	9423	40.771358847315	0.103333333334
4	9453	40.778025513983	0.211666666669
4	9508	42.251653111739	0.101666666667
4	9547	42.45506422285	0.101666666667
4	9582	42.460064222851	0.106666666668
4	9805	43.971049149318	0.105000000001
4	9857	44.090196514003	0.203333333334
4	9970	44.379382482653	0.208333333335
4	10010	44.497174291781	0.203644444444
4	10250	44.905507625116	0.205000000001
4	10293	44.92835170496	0.205000000001
4	10341	45.030018371627	0.103333333334
4	10551	45.94010203002	0.205000000001
4	10652	46.062461036789	0.103333333334
4	10812	46.184367492715	0.106666666668
4	10857	46.248435363355	0.208333333335
4	11009	46.36746103679	0.205000000001
4	11042	46.384367492715	0.103333333334
4	11303	47.548376384183	0.106666666668
5	163	6.21411800544	0.211666666669
5	325	6.617451338774	0.310000000002
5	334	6.627639176291	0.101666666667
5	402	6.830972509625	0.101666666667
5	432	6.832639176292	0.103333333334
5	679	7.154022930554	0.211666666669
5	761	7.349022930553	0.203333333334
5	830	7.513248549934	0.103333333334
5	1042	7.924915216603	0.210000000002
5	1094	7.950752144425	0.208333333335
5	1141	8.050752144425	0.105000000001
5	1347	8.980550803197	0.105000000001
5	1370	8.985550803198	0.211666666669
5	1467	9.366837941043	0.101666666667
5	1594	9.573504607711	0.206666666668
5	1705	9.8678996791	0.105000000001
5	1743	9.966233012433	0.101666666667
5	2023	10.738346531261	0.311666666669
5	2045	10.836679864594	0.206666666668
5	2134	12.753530929962	0.101666666667
5	2254	13.058530929963	0.203333333334
5	2384	14.207614548092	0.105000000001
5	2476	14.41428121476	0.210000000002
5	2500	14.506189679594	0.101666666667
5	2543	14.70954523515	0.101688888889
5	2686	14.839413698165	0.101666666667
5	2748	14.916211901818	0.105000000001
5	2942	15.352747031501	0.310000000002
5	3013	15.477037241179	0.103333333334
5	3059	15.658550955987	0.203333333334
5	3151	15.888703907848	0.210000000002
5	3237	16.628826747315	0.101666666667
5	3358	16.835493413983	0.206666666668
5	3561	17.9103881896	0.211666666669
5	3689	18.051159521764	0.203333333334
5	3749	18.108721522933	0.105000000001
5	3778	18.156159521765	0.206666666668
5	3973	20.407408326626	0.103333333334
5	4105	20.612408326627	0.105000000001
5	4142	20.667572505456	0.106666666668
5	4311	21.075905838791	0.210000000002
5	4412	21.545950519574	0.105000000001
5	4517	21.770812829923	0.101666666667
5	4597	21.954283852909	0.310000000002
5	4615	21.974168385479	0.101666666667
5	4648	21.975835052146	0.103333333334
5	4882	22.587613996896	0.208333333335
5	4946	22.789280663563	0.206666666668
5	5194	24.361886565115	0.311666666669
5	5216	24.460219898448	0.206666666668
5	5418	26.324460700141	0.105000000001
5	5562	26.524460700141	0.203333333334
5	5590	26.573896151144	0.311666666669
5	5662	26.773896151144	0.105000000001
5	5819	27.456574404803	0.206666666668
5	5922	27.764907738138	0.210000000002
5	6028	28.871666624939	0.103333333334
5	6127	29.07666662494	0.105000000001
5	6170	29.434123055244	0.203333333334
5	6253	29.840856388578	0.203333333334
5	6290	29.845856388579	0.208333333335
5	6515	30.835195723312	0.206666666668
5	6630	31.14186238998	0.310000000002
5	6753	31.472758224635	0.211666666669
5	6934	31.671091557968	0.105000000001
5	6955	31.725426857925	0.203333333334
5	7041	31.830426857926	0.206666666668
5	7151	31.950310290981	0.105000000001
5	7188	32.048643624314	0.101666666667
5	7367	32.883517405473	0.105000000001
5	7488	33.188517405474	0.206666666668
5	7618	33.851257367506	0.106666666668
5	7711	34.04853805381	0.103333333334
5	7884	34.259590700841	0.210000000002
5	7967	34.460204720479	0.210000000002
5	8113	35.163697030728	0.101666666667
5	8152	35.19776144393	0.206666666668
5	8183	35.296094777263	0.203333333334
5	8202	35.367119252951	0.101755555556
5	8330	35.573785919619	0.105000000001
5	8374	36.872320411128	0.101666666667
5	8386	37.075798188906	0.101811111111
5	8493	37.27913152224	0.101666666667
5	8582	37.969921818867	0.203333333334
5	8669	38.376721818867	0.203333333334
5	8706	38.381721818868	0.208333333335
5	8952	39.461325824335	0.203333333334
5	9026	39.667992491003	0.105000000001
5	9072	39.795117441531	0.203333333334
5	9108	40.201961885977	0.203511111112
5	9322	40.611961885979	0.206666666668
5	9431	40.773025513982	0.105000000001
5	9454	40.778025513983	0.211666666669
5	9676	42.658397556184	0.203333333334
5	9696	42.665064222852	0.311666666669
5	9840	44.072715815985	0.206666666668
5	9952	44.316507260513	0.203333333334
5	9973	44.38104914932	0.210000000002
5	10092	44.700507625115	0.203333333334
5	10135	44.723351704959	0.203511111112
5	10176	44.802174291782	0.101666666667
5	10380	45.133351704961	0.206666666668
5	10487	45.755594370121	0.203333333334
5	10513	45.838435363353	0.103333333334
5	10749	46.162461036789	0.203333333334
5	10786	46.16746103679	0.208333333335
5	10860	46.250102030022	0.210000000002
5	11054	46.386034159382	0.105000000001
5	11063	46.389367492716	0.311666666669
5	11405	47.753376384184	0.311666666669
6	203	6.310784672106	0.308333333335
6	348	6.71411800544	0.406666666668
6	404	6.830972509625	0.101666666667
6	474	6.932639176292	0.101666666667
6	731	7.25068959722	0.308333333335
6	811	7.45068959722	0.305000000001
6	822	7.511581883267	0.101666666667
6	850	7.539085477756	0.203333333334
6	1058	7.945752144424	0.203333333334
6	1082	7.947418811091	0.205000000001
6	1112	8.021581883269	0.306666666668
6	1393	9.07888413653	0.203333333334
6	1405	9.083884136531	0.310000000002
6	1466	9.366837941043	0.101666666667
6	1577	9.559533012432	0.101666666667
6	1586	9.570171274377	0.203333333334
6	1627	9.762899679099	0.1017
6	1742	9.966233012433	0.101666666667
6	2036	10.83334653126	0.203333333334
6	2039	10.835013197927	0.408333333335
6	2133	12.753530929962	0.101666666667
6	2267	13.16019759663	0.305000000001
6	2408	14.305947881425	0.203333333334
6	2509	14.510947881426	0.306666666668
6	2620	14.811211901817	0.101666666667
6	2685	14.839413698165	0.101666666667
6	2799	15.014545235151	0.203333333334
6	2988	15.449413698167	0.406666666668
6	3005	15.475370574512	0.101666666667
6	3168	15.985370574514	0.306666666668
6	3236	16.628826747315	0.101666666667
6	3350	16.832160080649	0.203333333334
6	3407	17.393654856264	0.305000000001
6	3637	18.003721522932	0.305000000001
6	3665	18.007054856266	0.308333333335
6	3768	18.152826188431	0.305000000001
6	3772	18.154492855098	0.205000000001
6	3865	19.950739172121	0.305000000001
6	3965	20.405741659959	0.101666666667
6	4045	20.560905838788	0.305166666666
6	4160	20.71074165996	0.203333333334
6	4332	21.172572505457	0.306666666668
6	4430	21.644283852907	0.203333333334
6	4617	21.974168385479	0.101666666667
6	4674	22.050950519575	0.406666666668
6	4688	22.075835052146	0.101666666667
6	4870	22.584280663562	0.205000000001
6	4940	22.785947330229	0.203333333334
6	5207	24.456886565114	0.203333333334
6	5210	24.458553231781	0.408333333335
6	5270	25.855385040031	0.406666666668
6	5483	26.422794033474	0.203333333334
6	5599	26.626127366808	0.305000000001
6	5608	26.668896151143	0.406666666668
6	5631	26.67056281781	0.408333333335
6	5812	27.453241071469	0.203333333334
6	5939	27.861574404804	0.306666666668
6	6020	28.869999958272	0.101666666667
6	6148	29.174999958273	0.203333333334
6	6278	29.842523055245	0.205000000001
6	6309	29.942523055245	0.101666666667
6	6489	30.831862389978	0.203333333334
6	6584	30.9559248913	0.305000000001
6	6647	31.238529056646	0.406666666668
6	6804	31.566091557967	0.305000000001
6	6832	31.569424891301	0.308333333335
6	6911	31.641854735424	0.101666666667
6	7035	31.827093524592	0.203333333334
6	7054	31.83376019126	0.311666666669
6	7058	31.84531029098	0.101788888889
6	7187	32.048643624314	0.101666666667
6	7385	32.981850738806	0.203333333334
6	7473	33.13452403417	0.305000000001
6	7482	33.18518407214	0.203333333334
6	7558	33.744590700838	0.305066666667
6	7703	34.046871387143	0.101666666667
6	7916	34.356257367507	0.306666666668
6	7984	34.556871387145	0.306666666668
6	8127	35.194428110596	0.203333333334
6	8235	35.39776144393	0.305000000001
6	8243	35.468785919618	0.101666666667
6	8355	35.672119252952	0.203333333334
6	8425	37.177464855573	0.101666666667
6	8492	37.27913152224	0.101666666667
6	8694	38.378388485534	0.205000000001
6	8729	38.478388485534	0.101666666667
6	8823	38.952725824333	0.305000000001
6	8847	39.107385717499	0.406666666668
6	8972	39.562992491002	0.305000000001
6	8995	39.564659157669	0.306666666668
6	9151	40.303628552644	0.101666666667
6	9316	40.608628552645	0.203333333334
6	9471	40.871358847315	0.203333333334
6	9483	40.876358847316	0.310000000002
6	9705	42.760064222851	0.305000000001
6	9708	42.765064222852	0.411666666669
6	9833	44.069382482651	0.203333333334
6	9998	44.477715815986	0.306666666668
6	10175	44.802174291782	0.101666666667
6	10187	44.803840958449	0.306666666668
6	10213	44.825018371626	0.101666666667
6	10374	45.130018371627	0.203333333334
6	10505	45.836768696686	0.101666666667
6	10774	46.164127703456	0.205000000001
6	10881	46.264127703456	0.101666666667
6	10989	46.346768696688	0.306666666668
6	11092	46.484367492715	0.203333333334
6	11098	46.486034159382	0.408333333335
6	11184	47.034643050847	0.406666666668
6	11380	47.678638152279	0.203333333334
6	11427	47.848376384183	0.406666666668
6	11430	47.85004305085	0.408333333335
6	11494	48.257976384179	0.203333333334
7	207	6.312451338773	0.310000000002
7	302	6.525972509624	0.101666666667
7	322	6.61411800544	0.306666666668
7	351	6.729305842958	0.101666666667
7	390	6.799881883265	0.305000000001
7	475	6.932639176292	0.101666666667
7	738	7.252356263887	0.310000000002
7	765	7.35068959722	0.205000000001
7	774	7.4099152166	0.305033333334
7	1006	7.847418811091	0.105000000001
7	1115	8.023248549936	0.308333333335
7	1127	8.047418811091	0.101666666667
7	1384	9.061837941042	0.101666666667
7	1396	9.080550803197	0.205000000001
7	1411	9.085550803198	0.311666666669
7	1426	9.265171274376	0.101666666667
7	1538	9.470171274377	0.103333333334
7	1615	9.661199679099	0.101666666667
7	1666	9.864566345766	0.101666666667
7	1695	9.866233012433	0.103333333334
7	1996	10.73334653126	0.103333333334
7	2007	10.735013197927	0.308333333335
7	2073	12.245175374405	0.203333333334
7	2093	12.651864263295	0.203355555556
7	2258	13.06019759663	0.205000000001
7	2331	14.12768036483	0.305000000001
7	2416	14.307614548092	0.205000000001
7	2512	14.512614548093	0.308333333335
7	2576	14.737747031498	0.305066666667
7	2609	14.763603907844	0.305000000001
7	2621	14.811211901817	0.101666666667
7	2802	15.016211901818	0.205000000001
7	2939	15.349413698167	0.306666666668
7	2955	15.373703907845	0.3051
7	3171	15.987037241181	0.308333333335
7	3184	16.323815636203	0.101666666667
7	3196	16.527160080648	0.101677777778
7	3304	16.732160080649	0.103333333334
7	3670	18.008721522933	0.310000000002
7	3701	18.052826188431	0.103333333334
7	3702	18.052826188431	0.205000000001
7	3735	18.105388189599	0.101666666667
7	3859	19.897341659958	0.203333333334
7	3917	20.304074993292	0.2034
7	4122	20.662572505455	0.101666666667
7	4163	20.712408326627	0.205000000001
7	4335	21.174239172124	0.308333333335
7	4455	21.645950519574	0.205000000001
7	4472	21.669146163256	0.101666666667
7	4556	21.872501718812	0.101688888889
7	4594	21.950950519575	0.306666666668
7	4689	22.075835052146	0.101666666667
7	4823	22.484280663562	0.105000000001
7	4908	22.685947330229	0.103333333334
7	5167	24.356886565114	0.103333333334
7	5178	24.358553231781	0.308333333335
7	5501	26.424460700141	0.205000000001
7	5566	26.526127366808	0.205000000001
7	5587	26.57056281781	0.308333333335
7	5648	26.77056281781	0.101666666667
7	5782	27.353241071469	0.103333333334
7	5942	27.863241071471	0.308333333335
7	5959	28.361533291605	0.203333333334
7	5979	28.768333291605	0.203466666666
7	6151	29.17666662494	0.205000000001
7	6230	29.742523055245	0.105000000001
7	6310	29.942523055245	0.101666666667
7	6455	30.731862389978	0.103333333334
7	6627	31.138529056646	0.306666666668
7	6837	31.571091557968	0.310000000002
7	6920	31.667758224634	0.101666666667
7	6965	31.727093524592	0.103333333334
7	6998	31.73376019126	0.211666666669
7	7001	31.743521402091	0.101666666667
7	7112	31.946976957647	0.101666666667
7	7141	31.948643624314	0.103333333334
7	7411	32.983517405473	0.205000000001
7	7446	33.08518407214	0.103333333334
7	7516	33.334938053807	0.305000000001
7	7598	33.846257367505	0.101666666667
7	7633	33.945204720476	0.305266666668
7	7923	34.357924034174	0.308333333335
7	7987	34.558538053812	0.308333333335
7	8081	35.094428110596	0.103333333334
7	8187	35.29776144393	0.205000000001
7	8244	35.468785919618	0.101666666667
7	8358	35.673785919619	0.205000000001
7	8380	36.973987077795	0.101666666667
7	8423	37.177464855573	0.101666666667
7	8453	37.17913152224	0.103333333334
7	8642	38.278388485534	0.105000000001
7	8730	38.478388485534	0.101666666667
7	8962	39.464659157669	0.206666666668
7	9012	39.664659157669	0.101666666667
7	9158	40.305295219311	0.103333333334
7	9257	40.508628552645	0.103333333334
7	9474	40.873025513982	0.205000000001
7	9489	40.878025513983	0.311666666669
7	9680	42.660064222851	0.205000000001
7	9695	42.665064222852	0.311666666669
7	9799	43.969382482651	0.103333333334
7	9946	44.293529847337	0.203333333334
7	10001	44.479382482653	0.308333333335
7	10091	44.700507625115	0.203333333334
7	10125	44.703840958449	0.206666666668
7	10220	44.826685038293	0.103333333334
7	10342	45.030018371627	0.103333333334
7	10365	45.124968696685	0.305000000001
7	10454	45.735102030019	0.305133333333
7	10658	46.064127703456	0.105000000001
7	10882	46.264127703456	0.101666666667
7	10992	46.348435363355	0.308333333335
7	11055	46.386034159382	0.308333333335
7	11097	46.486034159382	0.205000000001
7	11401	47.75004305085	0.308333333335
8	215	6.320784672108	0.318333333337
8	296	6.522451338775	0.215000000003
8	442	6.834305842959	0.105000000001
8	564	7.035972509626	0.205000000001
8	729	7.25068959722	0.105000000001
8	742	7.260689597222	0.318333333337
8	838	7.514915216601	0.105000000001
8	1102	7.952418811092	0.210000000002
8	1118	8.031581883271	0.31666666667
8	1171	8.150752144425	0.205000000001
8	1399	9.082217469864	0.206666666668
8	1414	9.092217469866	0.318333333337
8	1420	9.163504607709	0.101666666667
8	1465	9.366837941043	0.101666666667
8	1511	9.371837941044	0.106666666668
8	1763	9.969566345767	0.105000000001
8	1774	9.971233012434	0.208333333335
8	1977	10.643346531262	0.21666666667
8	2051	10.838346531261	0.208333333335
8	2157	12.758530929963	0.106666666668
8	2238	12.96019759663	0.105000000001
8	2423	14.309281214759	0.206666666668
8	2515	14.520947881428	0.31666666667
8	2709	14.844413698166	0.106666666668
8	2739	14.914545235151	0.205000000001
8	2805	15.017878568485	0.206666666668
8	2925	15.257747031502	0.215000000003
8	3021	15.478703907846	0.105000000001
8	3174	15.995370574516	0.31666666667
8	3190	16.42548230287	0.101666666667
8	3235	16.628826747315	0.101666666667
8	3281	16.633826747316	0.106666666668
8	3623	17.952826188431	0.105000000001
8	3676	18.017054856268	0.318333333337
8	3784	18.157826188432	0.208333333335
8	3799	18.208721522933	0.205000000001
8	3981	20.409074993293	0.105000000001
8	4166	20.714074993294	0.206666666668
8	4179	20.765905838789	0.205000000001
8	4338	21.182572505459	0.31666666667
8	4460	21.649283852908	0.208333333335
8	4547	21.85928385291	0.215000000003
8	4658	21.977501718813	0.105000000001
8	4732	22.175902885783	0.203333333334
8	4748	22.17916838548	0.205000000001
8	4846	22.582613996895	0.203333333334
8	4891	22.589280663563	0.210000000002
8	5148	24.266886565116	0.21666666667
8	5222	24.461886565115	0.208333333335
8	5507	26.426127366808	0.105000000001
8	5515	26.427794033475	0.208333333335
8	5553	26.478896151145	0.21666666667
8	5690	26.873896151144	0.205000000001
8	5825	27.45824107147	0.208333333335
8	5945	27.871574404806	0.31666666667
8	6036	28.873333291606	0.105000000001
8	6154	29.178333291607	0.206666666668
8	6160	29.23078972191	0.203333333334
8	6180	29.637523055244	0.2034
8	6354	30.045856388579	0.205000000001
8	6373	30.221729056644	0.203333333334
8	6405	30.628529056644	0.203466666666
8	6613	31.046862389981	0.215000000003
8	6728	31.420371302369	0.101666666667
8	6843	31.579424891303	0.318333333337
8	6855	31.623760191258	0.101666666667
8	6901	31.628760191259	0.106666666668
8	7014	31.771091557968	0.205000000001
8	7208	32.051976957648	0.105000000001
8	7219	32.053643624315	0.208333333335
8	7418	32.986850738807	0.208333333335
8	7494	33.190184072141	0.208333333335
8	7669	33.949590700839	0.205000000001
8	7740	34.050204720477	0.105000000001
8	7945	34.366257367509	0.31666666667
8	7990	34.566871387147	0.31666666667
8	8150	35.19776144393	0.105000000001
8	8159	35.199428110597	0.208333333335
8	8321	35.572119252952	0.205000000001
8	8361	35.675452586286	0.206666666668
8	8512	37.282464855574	0.105000000001
8	8523	37.284131522241	0.208333333335
8	8571	37.766588485533	0.203333333334
8	8592	38.173388485533	0.203466666666
8	8774	38.581721818868	0.205000000001
8	8937	39.364659157669	0.106666666668
8	9054	39.767992491003	0.205000000001
8	9220	40.408628552645	0.206666666668
8	9328	40.613628552646	0.208333333335
8	9477	40.874692180649	0.206666666668
8	9492	40.884692180651	0.318333333337
8	9635	42.560064222851	0.105000000001
8	9667	42.570064222853	0.21666666667
8	9723	43.255749149315	0.305000000001
8	9751	43.866049149317	0.305300000001
8	10004	44.487715815988	0.31666666667
8	10043	44.519840593847	0.203333333334
8	10080	44.603840958449	0.106666666668
8	10194	44.805507625116	0.105000000001
8	10268	44.926685038293	0.203333333334
8	10298	44.930018371627	0.206666666668
8	10430	45.552261036787	0.203333333334
8	10521	45.84010203002	0.105000000001
8	10565	45.959127703455	0.203533333334
8	10971	46.294367492717	0.21666666667
8	10996	46.35676869669	0.31666666667
8	11010	46.36746103679	0.205000000001
8	11101	46.487700826049	0.206666666668
8	11372	47.658376384185	0.21666666667
9	219	6.322451338775	0.320000000004
9	299	6.524118005442	0.21666666667
9	405	6.830972509625	0.101666666667
9	567	7.037639176293	0.206666666668
9	710	7.247356263886	0.101666666667
9	745	7.262356263889	0.320000000004
9	752	7.335752144422	0.203333333334
9	823	7.511581883267	0.101666666667
9	921	7.74241881109	0.203333333334
9	1121	8.033248549938	0.318333333337
9	1175	8.152418811092	0.206666666668
9	1404	9.083884136531	0.208333333335
9	1417	9.093884136533	0.320000000004
9	1468	9.366837941043	0.101666666667
9	1603	9.575171274378	0.208333333335
9	1744	9.966233012433	0.101666666667
9	1776	9.971233012434	0.208333333335
9	1842	10.223324309036	0.203333333334
9	1924	10.630013197926	0.203333333334
9	1980	10.645013197929	0.218333333337
9	2135	12.753530929962	0.101666666667
9	2219	12.956864263296	0.101666666667
9	2430	14.310947881426	0.208333333335
9	2518	14.522614548095	0.318333333337
9	2687	14.839413698165	0.101666666667
9	2749	14.916211901818	0.206666666668
9	2808	15.019545235152	0.208333333335
9	2928	15.259413698169	0.21666666667
9	3006	15.475370574512	0.101666666667
9	3177	15.997037241183	0.318333333337
9	3238	16.628826747315	0.101666666667
9	3367	16.83716008065	0.208333333335
9	3464	17.746137299541	0.101666666667
9	3581	17.949492855097	0.101666666667
9	3613	17.951159521764	0.103333333334
9	3679	18.018721522935	0.320000000004
9	3803	18.2103881896	0.206666666668
9	3966	20.405741659959	0.101666666667
9	4169	20.715741659961	0.208333333335
9	4186	20.767572505456	0.206666666668
9	4341	21.184239172126	0.318333333337
9	4464	21.650950519575	0.210000000002
9	4550	21.860950519577	0.21666666667
9	4606	21.972569552449	0.203333333334
9	4639	21.974236219116	0.101734500304
9	4751	22.180835052147	0.206666666668
9	4773	22.379280663561	0.203377777778
9	4952	22.79094733023	0.208333333335
9	5002	23.846797676224	0.203333333334
9	5095	24.25355323178	0.203333333334
9	5151	24.268553231783	0.218333333337
9	5487	26.422794033474	0.101666666667
9	5519	26.429460700142	0.210000000002
9	5556	26.480562817812	0.218333333337
9	5602	26.639707738135	0.305000000001
9	5694	26.875562817811	0.206666666668
9	5738	27.249907738135	0.305199999999
9	5948	27.873241071473	0.318333333337
9	6021	28.869999958272	0.101666666667
9	6157	29.179999958274	0.208333333335
9	6298	29.847523055246	0.210000000002
9	6357	30.047523055246	0.206666666668
9	6522	30.836862389979	0.208333333335
9	6616	31.048529056648	0.21666666667
9	6846	31.58109155797	0.320000000004
9	6858	31.623760191258	0.101666666667
9	7018	31.772758224635	0.206666666668
9	7047	31.832093524593	0.208333333335
9	7189	32.048643624314	0.101666666667
9	7221	32.053643624315	0.208333333335
9	7295	32.575050738806	0.203333333334
9	7384	32.981850738806	0.203333333334
9	7423	32.988517405474	0.210000000002
9	7678	33.951257367506	0.206666666668
9	7704	34.046871387143	0.101666666667
9	7949	34.367924034176	0.318333333337
9	7993	34.568538053814	0.318333333337
9	8000	34.787705888373	0.101666666667
9	8012	34.991094777262	0.101722222222
9	8131	35.194428110596	0.101666666667
9	8331	35.573785919619	0.206666666668
9	8364	35.677119252953	0.208333333335
9	8494	37.27913152224	0.101666666667
9	8525	37.284131522241	0.208333333335
9	8714	38.383388485535	0.210000000002
9	8777	38.583388485535	0.206666666668
9	8915	39.359659157668	0.101666666667
9	9058	39.76965915767	0.206666666668
9	9098	39.998450774865	0.203333333334
9	9190	40.405295219311	0.203333333334
9	9227	40.410295219312	0.208333333335
9	9482	40.876358847316	0.208333333335
9	9495	40.886358847318	0.320000000004
9	9621	42.556730889517	0.101666666667
9	9670	42.57173088952	0.218333333337
9	9846	44.074382482652	0.208333333335
9	10007	44.489382482655	0.318333333337
9	10058	44.598840958448	0.101666666667
9	10177	44.802174291782	0.101666666667
9	10305	44.931685038294	0.208333333335
9	10386	45.135018371628	0.208333333335
9	10506	45.836768696686	0.101666666667
9	10794	46.169127703457	0.210000000002
9	10974	46.296034159384	0.218333333337
9	10999	46.358435363357	0.318333333337
9	11013	46.369127703457	0.206666666668
9	11104	46.489367492716	0.208333333335
9	11375	47.660043050852	0.218333333337
9	11440	47.881971485613	0.203333333334
9	11464	48.054643050845	0.203333333334
9	11529	48.461509717513	0.203533333334

