version 2
run Net60CutThrough-0-20190228-10:31:21-3691
attr configname Net60CutThrough
attr datetime 20190228-10:31:21
attr experiment Net60CutThrough
attr inifile omnetpp.ini
attr iterationvars ""
attr iterationvarsf ""
attr measurement ""
attr network networks.Net60
attr processid 3691
attr repetition 0
attr replication #0
attr resultdir results
attr runnumber 0
attr seedset 0
param **.app.packetLength "32768 bytes"
param **.useCutThroughSwitching true
param **.destAddresses "\"1 50\""
param **.sendIaTime "uniform(1ms, 5ms)"
param **.appType "\"App\""
param **.app.packetLength "4096 bytes"

vector 0 Net60.rte[50].app endToEndDelay:vector ETV
attr interpolationmode none
attr title "end-to-end delay of arrived packets, vector"
attr unit s
vector 1 Net60.rte[1].app endToEndDelay:vector ETV
attr interpolationmode none
attr title "end-to-end delay of arrived packets, vector"
attr unit s
0	107	0.001773413142	0.0002
0	325	0.002646288235	0.001419436332
0	470	0.003049584647	0.0007
0	513	0.003145917451	0.0003
0	530	0.003172966149	0.0007
0	596	0.003311728647	0.000162235734
0	646	0.003408061451	0.000336264301
0	666	0.003435110149	0.000353200227
0	717	0.003559684068	0
0	721	0.003573872647	0.000486479334
0	763	0.003670205451	0.000342126286
0	837	0.003836016647	0.001645878226
0	899	0.003982530606	0.0001
0	944	0.004098160647	0.001674484267
0	1079	0.004360304647	0.002269679469
0	1095	0.004392687506	0.0008
0	1256	0.004622448647	0.001472102985
0	1429	0.004884592647	0.001769012961
0	1484	0.004980048581	0.0005
0	1574	0.005146736647	0.001556250134
0	1687	0.005408880647	0.000870982649
0	1790	0.005629139105	0.0006
0	1804	0.005671024647	0.001190675643
0	1896	0.005891283105	0.000540566204
0	1911	0.005933168647	0.001154492973
0	2023	0.006195312647	0.001864833276
0	2155	0.00645424547	0.0008
0	2158	0.006457456647	0.003185278392
0	2295	0.006719600647	0.002994759772
0	2425	0.006967602517	0.0002
0	2431	0.006981744647	0.00215312403
0	2582	0.007243888647	0.003660312187
0	2726	0.007506032647	0.001313945801
0	2762	0.007566071536	0.0005
0	2883	0.007768176647	0.001584369619
0	2905	0.007828215536	0.000276043425
0	2982	0.007967158041	0.0001
0	3016	0.008030320647	0.004835066638
0	3159	0.008292464647	0.004798209861
0	3311	0.008554608647	0.001487756596
0	3326	0.008582409961	0.0002
0	3436	0.008816752647	0.005405699165
1	133	0.001880873596	0.0008
1	185	0.002143017596	0.000858873361
1	251	0.002405161596	0.001056644408
1	336	0.002667305596	0.001105902486
1	432	0.002929449596	0.001456351901
1	547	0.003191593596	0.000496974409
1	628	0.003371378466	0
1	677	0.003453737596	0.000916210763
1	790	0.003715881596	0.000965532756
1	889	0.00396075746	0.0001
1	896	0.003978025596	0.001444259511
1	1015	0.004240169596	0.00132026091
1	1165	0.004502313596	0.001322780886
1	1335	0.004764457596	0.002193318423
1	1506	0.005026601596	0.002115941149
1	1630	0.005288745596	0.002394313436
1	1751	0.005550889596	0.00117382662
1	1864	0.005813033596	0.001837758309
1	1973	0.006075177596	0.00182650269
1	2094	0.006337321596	0.00180866481
1	2239	0.006599465596	0.001759299132
1	2368	0.006861609596	0.002694709462
1	2513	0.007123753596	0.001799966947
1	2661	0.007385897596	0.002393527669
1	2811	0.007648041596	0.001799210238
1	2949	0.007910185596	0.004194667461
1	3090	0.008172329596	0.0038578332
1	3239	0.008434473596	0.004321846568
1	3382	0.008696617596	0.004492974586

