version 2
run Net60CutThrough-0-20190228-10:31:21-3691
attr configname Net60CutThrough
attr datetime 20190228-10:31:21
attr experiment Net60CutThrough
attr inifile omnetpp.ini
attr iterationvars ""
attr iterationvarsf ""
attr measurement ""
attr network networks.Net60
attr processid 3691
attr repetition 0
attr replication #0
attr resultdir results
attr runnumber 0
attr seedset 0
param **.app.packetLength "32768 bytes"
param **.useCutThroughSwitching true
param **.destAddresses "\"1 50\""
param **.sendIaTime "uniform(1ms, 5ms)"
param **.appType "\"App\""
param **.app.packetLength "4096 bytes"

scalar Net60.rte[0].app hopCount:mean -nan
attr interpolationmode none
attr title "hop count of arrived packets, mean"
scalar Net60.rte[0].app hopCount:max -nan
attr interpolationmode none
attr title "hop count of arrived packets, max"
scalar Net60.rte[0].app endToEndDelay:mean -nan
attr interpolationmode none
attr title "end-to-end delay of arrived packets, mean"
attr unit s
scalar Net60.rte[0].app endToEndDelay:max -nan
attr interpolationmode none
attr title "end-to-end delay of arrived packets, max"
attr unit s
statistic Net60.rte[0].routing outputIf:histogram
field count 3
field mean 0
field stddev 0
field min 0
field max 0
field sum 0
field sqrsum 0
attr interpolationmode none
attr title "output interface for each routed packet, histogram"
bin	-inf	0
bin	-0.5	0
bin	-0.48	0
bin	-0.46	0
bin	-0.44	0
bin	-0.42	0
bin	-0.4	0
bin	-0.38	0
bin	-0.36	0
bin	-0.34	0
bin	-0.32	0
bin	-0.3	0
bin	-0.28	0
bin	-0.26	0
bin	-0.24	0
bin	-0.22	0
bin	-0.2	0
bin	-0.18	0
bin	-0.16	0
bin	-0.14	0
bin	-0.12	0
bin	-0.1	0
bin	-0.08	0
bin	-0.06	0
bin	-0.04	0
bin	-0.02	0
bin	0	3
bin	0.02	0
bin	0.04	0
bin	0.06	0
bin	0.08	0
bin	0.1	0
bin	0.12	0
bin	0.14	0
bin	0.16	0
bin	0.18	0
bin	0.2	0
bin	0.22	0
bin	0.24	0
bin	0.26	0
bin	0.28	0
bin	0.3	0
bin	0.32	0
bin	0.34	0
bin	0.36	0
bin	0.38	0
bin	0.4	0
bin	0.42	0
bin	0.44	0
bin	0.46	0
bin	0.48	0
bin	0.5	0
scalar Net60.rte[0].routing drop:count 0
attr interpolationmode none
attr title "dropped packet byte length, count"
attr unit bytes
scalar Net60.rte[0].routing drop:sum 0
attr interpolationmode none
attr title "dropped packet byte length, sum"
attr unit bytes
scalar Net60.rte[0].queue[0] rxBytes:count 0
attr interpolationmode none
attr title "received packet byte length, count"
attr unit bytes
scalar Net60.rte[0].queue[0] rxBytes:sum 0
attr interpolationmode none
attr title "received packet byte length, sum"
attr unit bytes
statistic Net60.rte[0].queue[0] rxBytes:histogram
field count 0
field mean -nan
field stddev -nan
field min -nan
field max -nan
field sum 0
field sqrsum 0
attr interpolationmode none
attr title "received packet byte length, histogram"
attr unit bytes
bin	-inf	0
bin	0	0
bin	1	0
scalar Net60.rte[0].queue[0] txBytes:count 3
attr interpolationmode none
attr title "transmitting packet byte length, count"
attr unit bytes
scalar Net60.rte[0].queue[0] txBytes:sum 98304
attr interpolationmode none
attr title "transmitting packet byte length, sum"
attr unit bytes
statistic Net60.rte[0].queue[0] txBytes:histogram
field count 3
field mean 32768
field stddev 0
field min 32768
field max 32768
field sum 98304
field sqrsum 3221225472
attr interpolationmode none
attr title "transmitting packet byte length, histogram"
attr unit bytes
bin	-inf	0
bin	32767	0
bin	32768	3
bin	32769	0
scalar Net60.rte[0].queue[0] busy:timeavg 0.08837978869661
attr interpolationmode sample-hold
attr title "server busy state, timeavg"
scalar Net60.rte[0].queue[0] qlen:timeavg 0
attr interpolationmode sample-hold
attr title "queue length, timeavg"
scalar Net60.rte[0].queue[0] qlen:max 0
attr interpolationmode sample-hold
attr title "queue length, max"
scalar Net60.rte[0].queue[0] drop:count 0
attr interpolationmode none
attr title "dropped packet byte length, count"
attr unit bytes
scalar Net60.rte[0].queue[0] drop:sum 0
attr interpolationmode none
attr title "dropped packet byte length, sum"
attr unit bytes
scalar Net60.rte[1].app hopCount:mean 6.4137931034483
attr interpolationmode none
attr title "hop count of arrived packets, mean"
scalar Net60.rte[1].app hopCount:max 13
attr interpolationmode none
attr title "hop count of arrived packets, max"
scalar Net60.rte[1].app endToEndDelay:mean 0.0018106259341724
attr interpolationmode none
attr title "end-to-end delay of arrived packets, mean"
attr unit s
scalar Net60.rte[1].app endToEndDelay:max 0.004492974586
attr interpolationmode none
attr title "end-to-end delay of arrived packets, max"
attr unit s
statistic Net60.rte[1].routing outputIf:histogram
field count 34
field mean -0.55882352941176
field stddev 1.0784718838607
field min -1
field max 2
field sum -19
field sqrsum 49
attr interpolationmode none
attr title "output interface for each routed packet, histogram"
bin	-inf	0
bin	-2	0
bin	-1	29
bin	0	0
bin	1	0
bin	2	5
bin	3	0
scalar Net60.rte[1].routing drop:count 0
attr interpolationmode none
attr title "dropped packet byte length, count"
attr unit bytes
scalar Net60.rte[1].routing drop:sum 0
attr interpolationmode none
attr title "dropped packet byte length, sum"
attr unit bytes
scalar Net60.rte[1].queue[0] rxBytes:count 3
attr interpolationmode none
attr title "received packet byte length, count"
attr unit bytes
scalar Net60.rte[1].queue[0] rxBytes:sum 98304
attr interpolationmode none
attr title "received packet byte length, sum"
attr unit bytes
statistic Net60.rte[1].queue[0] rxBytes:histogram
field count 3
field mean 32768
field stddev 0
field min 32768
field max 32768
field sum 98304
field sqrsum 3221225472
attr interpolationmode none
attr title "received packet byte length, histogram"
attr unit bytes
bin	-inf	0
bin	32767	0
bin	32768	3
bin	32769	0
scalar Net60.rte[1].queue[0] txBytes:count 0
attr interpolationmode none
attr title "transmitting packet byte length, count"
attr unit bytes
scalar Net60.rte[1].queue[0] txBytes:sum 0
attr interpolationmode none
attr title "transmitting packet byte length, sum"
attr unit bytes
statistic Net60.rte[1].queue[0] txBytes:histogram
field count 0
field mean -nan
field stddev -nan
field min -nan
field max -nan
field sum 0
field sqrsum 0
attr interpolationmode none
attr title "transmitting packet byte length, histogram"
attr unit bytes
bin	-inf	0
bin	0	0
bin	1	0
scalar Net60.rte[1].queue[0] busy:timeavg 0
attr interpolationmode sample-hold
attr title "server busy state, timeavg"
scalar Net60.rte[1].queue[0] qlen:timeavg 0
attr interpolationmode sample-hold
attr title "queue length, timeavg"
scalar Net60.rte[1].queue[0] qlen:max 0
attr interpolationmode sample-hold
attr title "queue length, max"
scalar Net60.rte[1].queue[0] drop:count 0
attr interpolationmode none
attr title "dropped packet byte length, count"
attr unit bytes
scalar Net60.rte[1].queue[0] drop:sum 0
attr interpolationmode none
attr title "dropped packet byte length, sum"
attr unit bytes
scalar Net60.rte[1].queue[1] rxBytes:count 2
attr interpolationmode none
attr title "received packet byte length, count"
attr unit bytes
scalar Net60.rte[1].queue[1] rxBytes:sum 65536
attr interpolationmode none
attr title "received packet byte length, sum"
attr unit bytes
statistic Net60.rte[1].queue[1] rxBytes:histogram
field count 2
field mean 32768
field stddev 0
field min 32768
field max 32768
field sum 65536
field sqrsum 2147483648
attr interpolationmode none
attr title "received packet byte length, histogram"
attr unit bytes
bin	-inf	0
bin	32767	0
bin	32768	2
bin	32769	0
scalar Net60.rte[1].queue[1] txBytes:count 0
attr interpolationmode none
attr title "transmitting packet byte length, count"
attr unit bytes
scalar Net60.rte[1].queue[1] txBytes:sum 0
attr interpolationmode none
attr title "transmitting packet byte length, sum"
attr unit bytes
statistic Net60.rte[1].queue[1] txBytes:histogram
field count 0
field mean -nan
field stddev -nan
field min -nan
field max -nan
field sum 0
field sqrsum 0
attr interpolationmode none
attr title "transmitting packet byte length, histogram"
attr unit bytes
bin	-inf	0
bin	0	0
bin	1	0
scalar Net60.rte[1].queue[1] busy:timeavg 0
attr interpolationmode sample-hold
attr title "server busy state, timeavg"
scalar Net60.rte[1].queue[1] qlen:timeavg 0
attr interpolationmode sample-hold
attr title "queue length, timeavg"
scalar Net60.rte[1].queue[1] qlen:max 0
attr interpolationmode sample-hold
attr title "queue length, max"
scalar Net60.rte[1].queue[1] drop:count 0
attr interpolationmode none
attr title "dropped packet byte length, count"
attr unit bytes
scalar Net60.rte[1].queue[1] drop:sum 0
attr interpolationmode none
attr title "dropped packet byte length, sum"
attr unit bytes
scalar Net60.rte[1].queue[2] rxBytes:count 27
attr interpolationmode none
attr title "received packet byte length, count"
attr unit bytes
scalar Net60.rte[1].queue[2] rxBytes:sum 884736
attr interpolationmode none
attr title "received packet byte length, sum"
attr unit bytes
statistic Net60.rte[1].queue[2] rxBytes:histogram
field count 27
field mean 32768
field stddev 0
field min 32768
field max 32768
field sum 884736
field sqrsum 28991029248
attr interpolationmode none
attr title "received packet byte length, histogram"
attr unit bytes
bin	-inf	0
bin	32767	0
bin	32768	27
bin	32769	0
scalar Net60.rte[1].queue[2] txBytes:count 5
attr interpolationmode none
attr title "transmitting packet byte length, count"
attr unit bytes
scalar Net60.rte[1].queue[2] txBytes:sum 163840
attr interpolationmode none
attr title "transmitting packet byte length, sum"
attr unit bytes
statistic Net60.rte[1].queue[2] txBytes:histogram
field count 5
field mean 32768
field stddev 0
field min 32768
field max 32768
field sum 163840
field sqrsum 5368709120
attr interpolationmode none
attr title "transmitting packet byte length, histogram"
attr unit bytes
bin	-inf	0
bin	32767	0
bin	32768	5
bin	32769	0
scalar Net60.rte[1].queue[2] busy:timeavg 0.14729964782768
attr interpolationmode sample-hold
attr title "server busy state, timeavg"
scalar Net60.rte[1].queue[2] qlen:timeavg 2.7218608630268e-06
attr interpolationmode sample-hold
attr title "queue length, timeavg"
scalar Net60.rte[1].queue[2] qlen:max 1
attr interpolationmode sample-hold
attr title "queue length, max"
scalar Net60.rte[1].queue[2] drop:count 0
attr interpolationmode none
attr title "dropped packet byte length, count"
attr unit bytes
scalar Net60.rte[1].queue[2] drop:sum 0
attr interpolationmode none
attr title "dropped packet byte length, sum"
attr unit bytes
scalar Net60.rte[2].app hopCount:mean -nan
attr interpolationmode none
attr title "hop count of arrived packets, mean"
scalar Net60.rte[2].app hopCount:max -nan
attr interpolationmode none
attr title "hop count of arrived packets, max"
scalar Net60.rte[2].app endToEndDelay:mean -nan
attr interpolationmode none
attr title "end-to-end delay of arrived packets, mean"
attr unit s
scalar Net60.rte[2].app endToEndDelay:max -nan
attr interpolationmode none
attr title "end-to-end delay of arrived packets, max"
attr unit s
statistic Net60.rte[2].routing outputIf:histogram
field count 2
field mean 0
field stddev 0
field min 0
field max 0
field sum 0
field sqrsum 0
attr interpolationmode none
attr title "output interface for each routed packet, histogram"
bin	-inf	0
bin	-0.5	0
bin	-0.48	0
bin	-0.46	0
bin	-0.44	0
bin	-0.42	0
bin	-0.4	0
bin	-0.38	0
bin	-0.36	0
bin	-0.34	0
bin	-0.32	0
bin	-0.3	0
bin	-0.28	0
bin	-0.26	0
bin	-0.24	0
bin	-0.22	0
bin	-0.2	0
bin	-0.18	0
bin	-0.16	0
bin	-0.14	0
bin	-0.12	0
bin	-0.1	0
bin	-0.08	0
bin	-0.06	0
bin	-0.04	0
bin	-0.02	0
bin	0	2
bin	0.02	0
bin	0.04	0
bin	0.06	0
bin	0.08	0
bin	0.1	0
bin	0.12	0
bin	0.14	0
bin	0.16	0
bin	0.18	0
bin	0.2	0
bin	0.22	0
bin	0.24	0
bin	0.26	0
bin	0.28	0
bin	0.3	0
bin	0.32	0
bin	0.34	0
bin	0.36	0
bin	0.38	0
bin	0.4	0
bin	0.42	0
bin	0.44	0
bin	0.46	0
bin	0.48	0
bin	0.5	0
scalar Net60.rte[2].routing drop:count 0
attr interpolationmode none
attr title "dropped packet byte length, count"
attr unit bytes
scalar Net60.rte[2].routing drop:sum 0
attr interpolationmode none
attr title "dropped packet byte length, sum"
attr unit bytes
scalar Net60.rte[2].queue[0] rxBytes:count 0
attr interpolationmode none
attr title "received packet byte length, count"
attr unit bytes
scalar Net60.rte[2].queue[0] rxBytes:sum 0
attr interpolationmode none
attr title "received packet byte length, sum"
attr unit bytes
statistic Net60.rte[2].queue[0] rxBytes:histogram
field count 0
field mean -nan
field stddev -nan
field min -nan
field max -nan
field sum 0
field sqrsum 0
attr interpolationmode none
attr title "received packet byte length, histogram"
attr unit bytes
bin	-inf	0
bin	0	0
bin	1	0
scalar Net60.rte[2].queue[0] txBytes:count 2
attr interpolationmode none
attr title "transmitting packet byte length, count"
attr unit bytes
scalar Net60.rte[2].queue[0] txBytes:sum 65536
attr interpolationmode none
attr title "transmitting packet byte length, sum"
attr unit bytes
statistic Net60.rte[2].queue[0] txBytes:histogram
field count 2
field mean 32768
field stddev 0
field min 32768
field max 32768
field sum 65536
field sqrsum 2147483648
attr interpolationmode none
attr title "transmitting packet byte length, histogram"
attr unit bytes
bin	-inf	0
bin	32767	0
bin	32768	2
bin	32769	0
scalar Net60.rte[2].queue[0] busy:timeavg 0.058919859131073
attr interpolationmode sample-hold
attr title "server busy state, timeavg"
scalar Net60.rte[2].queue[0] qlen:timeavg 0
attr interpolationmode sample-hold
attr title "queue length, timeavg"
scalar Net60.rte[2].queue[0] qlen:max 0
attr interpolationmode sample-hold
attr title "queue length, max"
scalar Net60.rte[2].queue[0] drop:count 0
attr interpolationmode none
attr title "dropped packet byte length, count"
attr unit bytes
scalar Net60.rte[2].queue[0] drop:sum 0
attr interpolationmode none
attr title "dropped packet byte length, sum"
attr unit bytes
scalar Net60.rte[3].app hopCount:mean -nan
attr interpolationmode none
attr title "hop count of arrived packets, mean"
scalar Net60.rte[3].app hopCount:max -nan
attr interpolationmode none
attr title "hop count of arrived packets, max"
scalar Net60.rte[3].app endToEndDelay:mean -nan
attr interpolationmode none
attr title "end-to-end delay of arrived packets, mean"
attr unit s
scalar Net60.rte[3].app endToEndDelay:max -nan
attr interpolationmode none
attr title "end-to-end delay of arrived packets, max"
attr unit s
statistic Net60.rte[3].routing outputIf:histogram
field count 1
field mean 0
field stddev -nan
field min 0
field max 0
field sum 0
field sqrsum 0
attr interpolationmode none
attr title "output interface for each routed packet, histogram"
bin	-inf	0
bin	-0.5	0
bin	-0.48	0
bin	-0.46	0
bin	-0.44	0
bin	-0.42	0
bin	-0.4	0
bin	-0.38	0
bin	-0.36	0
bin	-0.34	0
bin	-0.32	0
bin	-0.3	0
bin	-0.28	0
bin	-0.26	0
bin	-0.24	0
bin	-0.22	0
bin	-0.2	0
bin	-0.18	0
bin	-0.16	0
bin	-0.14	0
bin	-0.12	0
bin	-0.1	0
bin	-0.08	0
bin	-0.06	0
bin	-0.04	0
bin	-0.02	0
bin	0	1
bin	0.02	0
bin	0.04	0
bin	0.06	0
bin	0.08	0
bin	0.1	0
bin	0.12	0
bin	0.14	0
bin	0.16	0
bin	0.18	0
bin	0.2	0
bin	0.22	0
bin	0.24	0
bin	0.26	0
bin	0.28	0
bin	0.3	0
bin	0.32	0
bin	0.34	0
bin	0.36	0
bin	0.38	0
bin	0.4	0
bin	0.42	0
bin	0.44	0
bin	0.46	0
bin	0.48	0
bin	0.5	0
scalar Net60.rte[3].routing drop:count 0
attr interpolationmode none
attr title "dropped packet byte length, count"
attr unit bytes
scalar Net60.rte[3].routing drop:sum 0
attr interpolationmode none
attr title "dropped packet byte length, sum"
attr unit bytes
scalar Net60.rte[3].queue[0] rxBytes:count 0
attr interpolationmode none
attr title "received packet byte length, count"
attr unit bytes
scalar Net60.rte[3].queue[0] rxBytes:sum 0
attr interpolationmode none
attr title "received packet byte length, sum"
attr unit bytes
statistic Net60.rte[3].queue[0] rxBytes:histogram
field count 0
field mean -nan
field stddev -nan
field min -nan
field max -nan
field sum 0
field sqrsum 0
attr interpolationmode none
attr title "received packet byte length, histogram"
attr unit bytes
bin	-inf	0
bin	0	0
bin	1	0
scalar Net60.rte[3].queue[0] txBytes:count 1
attr interpolationmode none
attr title "transmitting packet byte length, count"
attr unit bytes
scalar Net60.rte[3].queue[0] txBytes:sum 32768
attr interpolationmode none
attr title "transmitting packet byte length, sum"
attr unit bytes
statistic Net60.rte[3].queue[0] txBytes:histogram
field count 1
field mean 32768
field stddev -nan
field min 32768
field max 32768
field sum 32768
field sqrsum 1073741824
attr interpolationmode none
attr title "transmitting packet byte length, histogram"
attr unit bytes
bin	-inf	0
bin	32767	0
bin	32768	1
bin	32769	0
scalar Net60.rte[3].queue[0] busy:timeavg 0.029459929565537
attr interpolationmode sample-hold
attr title "server busy state, timeavg"
scalar Net60.rte[3].queue[0] qlen:timeavg 0
attr interpolationmode sample-hold
attr title "queue length, timeavg"
scalar Net60.rte[3].queue[0] qlen:max 0
attr interpolationmode sample-hold
attr title "queue length, max"
scalar Net60.rte[3].queue[0] drop:count 0
attr interpolationmode none
attr title "dropped packet byte length, count"
attr unit bytes
scalar Net60.rte[3].queue[0] drop:sum 0
attr interpolationmode none
attr title "dropped packet byte length, sum"
attr unit bytes
scalar Net60.rte[4].app hopCount:mean -nan
attr interpolationmode none
attr title "hop count of arrived packets, mean"
scalar Net60.rte[4].app hopCount:max -nan
attr interpolationmode none
attr title "hop count of arrived packets, max"
scalar Net60.rte[4].app endToEndDelay:mean -nan
attr interpolationmode none
attr title "end-to-end delay of arrived packets, mean"
attr unit s
scalar Net60.rte[4].app endToEndDelay:max -nan
attr interpolationmode none
attr title "end-to-end delay of arrived packets, max"
attr unit s
statistic Net60.rte[4].routing outputIf:histogram
field count 45
field mean 0.4
field stddev 0.80903983495589
field min 0
field max 2
field sum 18
field sqrsum 36
attr interpolationmode none
attr title "output interface for each routed packet, histogram"
bin	-inf	0
bin	0	36
bin	1	0
bin	2	9
bin	3	0
scalar Net60.rte[4].routing drop:count 0
attr interpolationmode none
attr title "dropped packet byte length, count"
attr unit bytes
scalar Net60.rte[4].routing drop:sum 0
attr interpolationmode none
attr title "dropped packet byte length, sum"
attr unit bytes
scalar Net60.rte[4].queue[0] rxBytes:count 5
attr interpolationmode none
attr title "received packet byte length, count"
attr unit bytes
scalar Net60.rte[4].queue[0] rxBytes:sum 163840
attr interpolationmode none
attr title "received packet byte length, sum"
attr unit bytes
statistic Net60.rte[4].queue[0] rxBytes:histogram
field count 5
field mean 32768
field stddev 0
field min 32768
field max 32768
field sum 163840
field sqrsum 5368709120
attr interpolationmode none
attr title "received packet byte length, histogram"
attr unit bytes
bin	-inf	0
bin	32767	0
bin	32768	5
bin	32769	0
scalar Net60.rte[4].queue[0] txBytes:count 28
attr interpolationmode none
attr title "transmitting packet byte length, count"
attr unit bytes
scalar Net60.rte[4].queue[0] txBytes:sum 917504
attr interpolationmode none
attr title "transmitting packet byte length, sum"
attr unit bytes
statistic Net60.rte[4].queue[0] txBytes:histogram
field count 28
field mean 32768
field stddev 0
field min 32768
field max 32768
field sum 917504
field sqrsum 30064771072
attr interpolationmode none
attr title "transmitting packet byte length, histogram"
attr unit bytes
bin	-inf	0
bin	32767	0
bin	32768	28
bin	32769	0
scalar Net60.rte[4].queue[0] busy:timeavg 0.79986415594756
attr interpolationmode sample-hold
attr title "server busy state, timeavg"
scalar Net60.rte[4].queue[0] qlen:timeavg 3.645945479456
attr interpolationmode sample-hold
attr title "queue length, timeavg"
scalar Net60.rte[4].queue[0] qlen:max 8
attr interpolationmode sample-hold
attr title "queue length, max"
scalar Net60.rte[4].queue[0] drop:count 0
attr interpolationmode none
attr title "dropped packet byte length, count"
attr unit bytes
scalar Net60.rte[4].queue[0] drop:sum 0
attr interpolationmode none
attr title "dropped packet byte length, sum"
attr unit bytes
scalar Net60.rte[4].queue[1] rxBytes:count 1
attr interpolationmode none
attr title "received packet byte length, count"
attr unit bytes
scalar Net60.rte[4].queue[1] rxBytes:sum 32768
attr interpolationmode none
attr title "received packet byte length, sum"
attr unit bytes
statistic Net60.rte[4].queue[1] rxBytes:histogram
field count 1
field mean 32768
field stddev -nan
field min 32768
field max 32768
field sum 32768
field sqrsum 1073741824
attr interpolationmode none
attr title "received packet byte length, histogram"
attr unit bytes
bin	-inf	0
bin	32767	0
bin	32768	1
bin	32769	0
scalar Net60.rte[4].queue[1] txBytes:count 0
attr interpolationmode none
attr title "transmitting packet byte length, count"
attr unit bytes
scalar Net60.rte[4].queue[1] txBytes:sum 0
attr interpolationmode none
attr title "transmitting packet byte length, sum"
attr unit bytes
statistic Net60.rte[4].queue[1] txBytes:histogram
field count 0
field mean -nan
field stddev -nan
field min -nan
field max -nan
field sum 0
field sqrsum 0
attr interpolationmode none
attr title "transmitting packet byte length, histogram"
attr unit bytes
bin	-inf	0
bin	0	0
bin	1	0
scalar Net60.rte[4].queue[1] busy:timeavg 0
attr interpolationmode sample-hold
attr title "server busy state, timeavg"
scalar Net60.rte[4].queue[1] qlen:timeavg 0
attr interpolationmode sample-hold
attr title "queue length, timeavg"
scalar Net60.rte[4].queue[1] qlen:max 0
attr interpolationmode sample-hold
attr title "queue length, max"
scalar Net60.rte[4].queue[1] drop:count 0
attr interpolationmode none
attr title "dropped packet byte length, count"
attr unit bytes
scalar Net60.rte[4].queue[1] drop:sum 0
attr interpolationmode none
attr title "dropped packet byte length, sum"
attr unit bytes
scalar Net60.rte[4].queue[2] rxBytes:count 28
attr interpolationmode none
attr title "received packet byte length, count"
attr unit bytes
scalar Net60.rte[4].queue[2] rxBytes:sum 917504
attr interpolationmode none
attr title "received packet byte length, sum"
attr unit bytes
statistic Net60.rte[4].queue[2] rxBytes:histogram
field count 28
field mean 32768
field stddev 0
field min 32768
field max 32768
field sum 917504
field sqrsum 30064771072
attr interpolationmode none
attr title "received packet byte length, histogram"
attr unit bytes
bin	-inf	0
bin	32767	0
bin	32768	28
bin	32769	0
scalar Net60.rte[4].queue[2] txBytes:count 9
attr interpolationmode none
attr title "transmitting packet byte length, count"
attr unit bytes
scalar Net60.rte[4].queue[2] txBytes:sum 294912
attr interpolationmode none
attr title "transmitting packet byte length, sum"
attr unit bytes
statistic Net60.rte[4].queue[2] txBytes:histogram
field count 9
field mean 32768
field stddev 0
field min 32768
field max 32768
field sum 294912
field sqrsum 9663676416
attr interpolationmode none
attr title "transmitting packet byte length, histogram"
attr unit bytes
bin	-inf	0
bin	32767	0
bin	32768	9
bin	32769	0
scalar Net60.rte[4].queue[2] busy:timeavg 0.26513936608983
attr interpolationmode sample-hold
attr title "server busy state, timeavg"
scalar Net60.rte[4].queue[2] qlen:timeavg 0.027684373528578
attr interpolationmode sample-hold
attr title "queue length, timeavg"
scalar Net60.rte[4].queue[2] qlen:max 1
attr interpolationmode sample-hold
attr title "queue length, max"
scalar Net60.rte[4].queue[2] drop:count 0
attr interpolationmode none
attr title "dropped packet byte length, count"
attr unit bytes
scalar Net60.rte[4].queue[2] drop:sum 0
attr interpolationmode none
attr title "dropped packet byte length, sum"
attr unit bytes
scalar Net60.rte[4].queue[3] rxBytes:count 9
attr interpolationmode none
attr title "received packet byte length, count"
attr unit bytes
scalar Net60.rte[4].queue[3] rxBytes:sum 294912
attr interpolationmode none
attr title "received packet byte length, sum"
attr unit bytes
statistic Net60.rte[4].queue[3] rxBytes:histogram
field count 9
field mean 32768
field stddev 0
field min 32768
field max 32768
field sum 294912
field sqrsum 9663676416
attr interpolationmode none
attr title "received packet byte length, histogram"
attr unit bytes
bin	-inf	0
bin	32767	0
bin	32768	9
bin	32769	0
scalar Net60.rte[4].queue[3] txBytes:count 0
attr interpolationmode none
attr title "transmitting packet byte length, count"
attr unit bytes
scalar Net60.rte[4].queue[3] txBytes:sum 0
attr interpolationmode none
attr title "transmitting packet byte length, sum"
attr unit bytes
statistic Net60.rte[4].queue[3] txBytes:histogram
field count 0
field mean -nan
field stddev -nan
field min -nan
field max -nan
field sum 0
field sqrsum 0
attr interpolationmode none
attr title "transmitting packet byte length, histogram"
attr unit bytes
bin	-inf	0
bin	0	0
bin	1	0
scalar Net60.rte[4].queue[3] busy:timeavg 0
attr interpolationmode sample-hold
attr title "server busy state, timeavg"
scalar Net60.rte[4].queue[3] qlen:timeavg 0
attr interpolationmode sample-hold
attr title "queue length, timeavg"
scalar Net60.rte[4].queue[3] qlen:max 0
attr interpolationmode sample-hold
attr title "queue length, max"
scalar Net60.rte[4].queue[3] drop:count 0
attr interpolationmode none
attr title "dropped packet byte length, count"
attr unit bytes
scalar Net60.rte[4].queue[3] drop:sum 0
attr interpolationmode none
attr title "dropped packet byte length, sum"
attr unit bytes
scalar Net60.rte[5].app hopCount:mean -nan
attr interpolationmode none
attr title "hop count of arrived packets, mean"
scalar Net60.rte[5].app hopCount:max -nan
attr interpolationmode none
attr title "hop count of arrived packets, max"
scalar Net60.rte[5].app endToEndDelay:mean -nan
attr interpolationmode none
attr title "end-to-end delay of arrived packets, mean"
attr unit s
scalar Net60.rte[5].app endToEndDelay:max -nan
attr interpolationmode none
attr title "end-to-end delay of arrived packets, max"
attr unit s
statistic Net60.rte[5].routing outputIf:histogram
field count 40
field mean 0.55
field stddev 0.90440517355261
field min 0
field max 2
field sum 22
field sqrsum 44
attr interpolationmode none
attr title "output interface for each routed packet, histogram"
bin	-inf	0
bin	0	29
bin	1	0
bin	2	11
bin	3	0
scalar Net60.rte[5].routing drop:count 0
attr interpolationmode none
attr title "dropped packet byte length, count"
attr unit bytes
scalar Net60.rte[5].routing drop:sum 0
attr interpolationmode none
attr title "dropped packet byte length, sum"
attr unit bytes
scalar Net60.rte[5].queue[0] rxBytes:count 9
attr interpolationmode none
attr title "received packet byte length, count"
attr unit bytes
scalar Net60.rte[5].queue[0] rxBytes:sum 294912
attr interpolationmode none
attr title "received packet byte length, sum"
attr unit bytes
statistic Net60.rte[5].queue[0] rxBytes:histogram
field count 9
field mean 32768
field stddev 0
field min 32768
field max 32768
field sum 294912
field sqrsum 9663676416
attr interpolationmode none
attr title "received packet byte length, histogram"
attr unit bytes
bin	-inf	0
bin	32767	0
bin	32768	9
bin	32769	0
scalar Net60.rte[5].queue[0] txBytes:count 28
attr interpolationmode none
attr title "transmitting packet byte length, count"
attr unit bytes
scalar Net60.rte[5].queue[0] txBytes:sum 917504
attr interpolationmode none
attr title "transmitting packet byte length, sum"
attr unit bytes
statistic Net60.rte[5].queue[0] txBytes:histogram
field count 28
field mean 32768
field stddev 0
field min 32768
field max 32768
field sum 917504
field sqrsum 30064771072
attr interpolationmode none
attr title "transmitting packet byte length, histogram"
attr unit bytes
bin	-inf	0
bin	32767	0
bin	32768	28
bin	32769	0
scalar Net60.rte[5].queue[0] busy:timeavg 0.80988652739848
attr interpolationmode sample-hold
attr title "server busy state, timeavg"
scalar Net60.rte[5].queue[0] qlen:timeavg 0.15971857686193
attr interpolationmode sample-hold
attr title "queue length, timeavg"
scalar Net60.rte[5].queue[0] qlen:max 1
attr interpolationmode sample-hold
attr title "queue length, max"
scalar Net60.rte[5].queue[0] drop:count 0
attr interpolationmode none
attr title "dropped packet byte length, count"
attr unit bytes
scalar Net60.rte[5].queue[0] drop:sum 0
attr interpolationmode none
attr title "dropped packet byte length, sum"
attr unit bytes
scalar Net60.rte[5].queue[1] rxBytes:count 2
attr interpolationmode none
attr title "received packet byte length, count"
attr unit bytes
scalar Net60.rte[5].queue[1] rxBytes:sum 65536
attr interpolationmode none
attr title "received packet byte length, sum"
attr unit bytes
statistic Net60.rte[5].queue[1] rxBytes:histogram
field count 2
field mean 32768
field stddev 0
field min 32768
field max 32768
field sum 65536
field sqrsum 2147483648
attr interpolationmode none
attr title "received packet byte length, histogram"
attr unit bytes
bin	-inf	0
bin	32767	0
bin	32768	2
bin	32769	0
scalar Net60.rte[5].queue[1] txBytes:count 0
attr interpolationmode none
attr title "transmitting packet byte length, count"
attr unit bytes
scalar Net60.rte[5].queue[1] txBytes:sum 0
attr interpolationmode none
attr title "transmitting packet byte length, sum"
attr unit bytes
statistic Net60.rte[5].queue[1] txBytes:histogram
field count 0
field mean -nan
field stddev -nan
field min -nan
field max -nan
field sum 0
field sqrsum 0
attr interpolationmode none
attr title "transmitting packet byte length, histogram"
attr unit bytes
bin	-inf	0
bin	0	0
bin	1	0
scalar Net60.rte[5].queue[1] busy:timeavg 0
attr interpolationmode sample-hold
attr title "server busy state, timeavg"
scalar Net60.rte[5].queue[1] qlen:timeavg 0
attr interpolationmode sample-hold
attr title "queue length, timeavg"
scalar Net60.rte[5].queue[1] qlen:max 0
attr interpolationmode sample-hold
attr title "queue length, max"
scalar Net60.rte[5].queue[1] drop:count 0
attr interpolationmode none
attr title "dropped packet byte length, count"
attr unit bytes
scalar Net60.rte[5].queue[1] drop:sum 0
attr interpolationmode none
attr title "dropped packet byte length, sum"
attr unit bytes
scalar Net60.rte[5].queue[2] rxBytes:count 27
attr interpolationmode none
attr title "received packet byte length, count"
attr unit bytes
scalar Net60.rte[5].queue[2] rxBytes:sum 884736
attr interpolationmode none
attr title "received packet byte length, sum"
attr unit bytes
statistic Net60.rte[5].queue[2] rxBytes:histogram
field count 27
field mean 32768
field stddev 0
field min 32768
field max 32768
field sum 884736
field sqrsum 28991029248
attr interpolationmode none
attr title "received packet byte length, histogram"
attr unit bytes
bin	-inf	0
bin	32767	0
bin	32768	27
bin	32769	0
scalar Net60.rte[5].queue[2] txBytes:count 11
attr interpolationmode none
attr title "transmitting packet byte length, count"
attr unit bytes
scalar Net60.rte[5].queue[2] txBytes:sum 360448
attr interpolationmode none
attr title "transmitting packet byte length, sum"
attr unit bytes
statistic Net60.rte[5].queue[2] txBytes:histogram
field count 11
field mean 32768
field stddev 0
field min 32768
field max 32768
field sum 360448
field sqrsum 11811160064
attr interpolationmode none
attr title "transmitting packet byte length, histogram"
attr unit bytes
bin	-inf	0
bin	32767	0
bin	32768	11
bin	32769	0
scalar Net60.rte[5].queue[2] busy:timeavg 0.3240592252209
attr interpolationmode sample-hold
attr title "server busy state, timeavg"
scalar Net60.rte[5].queue[2] qlen:timeavg 0.014587856337205
attr interpolationmode sample-hold
attr title "queue length, timeavg"
scalar Net60.rte[5].queue[2] qlen:max 1
attr interpolationmode sample-hold
attr title "queue length, max"
scalar Net60.rte[5].queue[2] drop:count 0
attr interpolationmode none
attr title "dropped packet byte length, count"
attr unit bytes
scalar Net60.rte[5].queue[2] drop:sum 0
attr interpolationmode none
attr title "dropped packet byte length, sum"
attr unit bytes
scalar Net60.rte[6].app hopCount:mean -nan
attr interpolationmode none
attr title "hop count of arrived packets, mean"
scalar Net60.rte[6].app hopCount:max -nan
attr interpolationmode none
attr title "hop count of arrived packets, max"
scalar Net60.rte[6].app endToEndDelay:mean -nan
attr interpolationmode none
attr title "end-to-end delay of arrived packets, mean"
attr unit s
scalar Net60.rte[6].app endToEndDelay:max -nan
attr interpolationmode none
attr title "end-to-end delay of arrived packets, max"
attr unit s
statistic Net60.rte[6].routing outputIf:histogram
field count 2
field mean 0
field stddev 0
field min 0
field max 0
field sum 0
field sqrsum 0
attr interpolationmode none
attr title "output interface for each routed packet, histogram"
bin	-inf	0
bin	-0.5	0
bin	-0.48	0
bin	-0.46	0
bin	-0.44	0
bin	-0.42	0
bin	-0.4	0
bin	-0.38	0
bin	-0.36	0
bin	-0.34	0
bin	-0.32	0
bin	-0.3	0
bin	-0.28	0
bin	-0.26	0
bin	-0.24	0
bin	-0.22	0
bin	-0.2	0
bin	-0.18	0
bin	-0.16	0
bin	-0.14	0
bin	-0.12	0
bin	-0.1	0
bin	-0.08	0
bin	-0.06	0
bin	-0.04	0
bin	-0.02	0
bin	0	2
bin	0.02	0
bin	0.04	0
bin	0.06	0
bin	0.08	0
bin	0.1	0
bin	0.12	0
bin	0.14	0
bin	0.16	0
bin	0.18	0
bin	0.2	0
bin	0.22	0
bin	0.24	0
bin	0.26	0
bin	0.28	0
bin	0.3	0
bin	0.32	0
bin	0.34	0
bin	0.36	0
bin	0.38	0
bin	0.4	0
bin	0.42	0
bin	0.44	0
bin	0.46	0
bin	0.48	0
bin	0.5	0
scalar Net60.rte[6].routing drop:count 0
attr interpolationmode none
attr title "dropped packet byte length, count"
attr unit bytes
scalar Net60.rte[6].routing drop:sum 0
attr interpolationmode none
attr title "dropped packet byte length, sum"
attr unit bytes
scalar Net60.rte[6].queue[0] rxBytes:count 0
attr interpolationmode none
attr title "received packet byte length, count"
attr unit bytes
scalar Net60.rte[6].queue[0] rxBytes:sum 0
attr interpolationmode none
attr title "received packet byte length, sum"
attr unit bytes
statistic Net60.rte[6].queue[0] rxBytes:histogram
field count 0
field mean -nan
field stddev -nan
field min -nan
field max -nan
field sum 0
field sqrsum 0
attr interpolationmode none
attr title "received packet byte length, histogram"
attr unit bytes
bin	-inf	0
bin	0	0
bin	1	0
scalar Net60.rte[6].queue[0] txBytes:count 2
attr interpolationmode none
attr title "transmitting packet byte length, count"
attr unit bytes
scalar Net60.rte[6].queue[0] txBytes:sum 65536
attr interpolationmode none
attr title "transmitting packet byte length, sum"
attr unit bytes
statistic Net60.rte[6].queue[0] txBytes:histogram
field count 2
field mean 32768
field stddev 0
field min 32768
field max 32768
field sum 65536
field sqrsum 2147483648
attr interpolationmode none
attr title "transmitting packet byte length, histogram"
attr unit bytes
bin	-inf	0
bin	32767	0
bin	32768	2
bin	32769	0
scalar Net60.rte[6].queue[0] busy:timeavg 0.058919859131073
attr interpolationmode sample-hold
attr title "server busy state, timeavg"
scalar Net60.rte[6].queue[0] qlen:timeavg 0
attr interpolationmode sample-hold
attr title "queue length, timeavg"
scalar Net60.rte[6].queue[0] qlen:max 0
attr interpolationmode sample-hold
attr title "queue length, max"
scalar Net60.rte[6].queue[0] drop:count 0
attr interpolationmode none
attr title "dropped packet byte length, count"
attr unit bytes
scalar Net60.rte[6].queue[0] drop:sum 0
attr interpolationmode none
attr title "dropped packet byte length, sum"
attr unit bytes
scalar Net60.rte[6].queue[1] rxBytes:count 0
attr interpolationmode none
attr title "received packet byte length, count"
attr unit bytes
scalar Net60.rte[6].queue[1] rxBytes:sum 0
attr interpolationmode none
attr title "received packet byte length, sum"
attr unit bytes
statistic Net60.rte[6].queue[1] rxBytes:histogram
field count 0
field mean -nan
field stddev -nan
field min -nan
field max -nan
field sum 0
field sqrsum 0
attr interpolationmode none
attr title "received packet byte length, histogram"
attr unit bytes
bin	-inf	0
bin	0	0
bin	1	0
scalar Net60.rte[6].queue[1] txBytes:count 0
attr interpolationmode none
attr title "transmitting packet byte length, count"
attr unit bytes
scalar Net60.rte[6].queue[1] txBytes:sum 0
attr interpolationmode none
attr title "transmitting packet byte length, sum"
attr unit bytes
statistic Net60.rte[6].queue[1] txBytes:histogram
field count 0
field mean -nan
field stddev -nan
field min -nan
field max -nan
field sum 0
field sqrsum 0
attr interpolationmode none
attr title "transmitting packet byte length, histogram"
attr unit bytes
bin	-inf	0
bin	0	0
bin	1	0
scalar Net60.rte[6].queue[1] busy:timeavg 0
attr interpolationmode sample-hold
attr title "server busy state, timeavg"
scalar Net60.rte[6].queue[1] qlen:timeavg 0
attr interpolationmode sample-hold
attr title "queue length, timeavg"
scalar Net60.rte[6].queue[1] qlen:max 0
attr interpolationmode sample-hold
attr title "queue length, max"
scalar Net60.rte[6].queue[1] drop:count 0
attr interpolationmode none
attr title "dropped packet byte length, count"
attr unit bytes
scalar Net60.rte[6].queue[1] drop:sum 0
attr interpolationmode none
attr title "dropped packet byte length, sum"
attr unit bytes
scalar Net60.rte[6].queue[2] rxBytes:count 0
attr interpolationmode none
attr title "received packet byte length, count"
attr unit bytes
scalar Net60.rte[6].queue[2] rxBytes:sum 0
attr interpolationmode none
attr title "received packet byte length, sum"
attr unit bytes
statistic Net60.rte[6].queue[2] rxBytes:histogram
field count 0
field mean -nan
field stddev -nan
field min -nan
field max -nan
field sum 0
field sqrsum 0
attr interpolationmode none
attr title "received packet byte length, histogram"
attr unit bytes
bin	-inf	0
bin	0	0
bin	1	0
scalar Net60.rte[6].queue[2] txBytes:count 0
attr interpolationmode none
attr title "transmitting packet byte length, count"
attr unit bytes
scalar Net60.rte[6].queue[2] txBytes:sum 0
attr interpolationmode none
attr title "transmitting packet byte length, sum"
attr unit bytes
statistic Net60.rte[6].queue[2] txBytes:histogram
field count 0
field mean -nan
field stddev -nan
field min -nan
field max -nan
field sum 0
field sqrsum 0
attr interpolationmode none
attr title "transmitting packet byte length, histogram"
attr unit bytes
bin	-inf	0
bin	0	0
bin	1	0
scalar Net60.rte[6].queue[2] busy:timeavg 0
attr interpolationmode sample-hold
attr title "server busy state, timeavg"
scalar Net60.rte[6].queue[2] qlen:timeavg 0
attr interpolationmode sample-hold
attr title "queue length, timeavg"
scalar Net60.rte[6].queue[2] qlen:max 0
attr interpolationmode sample-hold
attr title "queue length, max"
scalar Net60.rte[6].queue[2] drop:count 0
attr interpolationmode none
attr title "dropped packet byte length, count"
attr unit bytes
scalar Net60.rte[6].queue[2] drop:sum 0
attr interpolationmode none
attr title "dropped packet byte length, sum"
attr unit bytes
scalar Net60.rte[7].app hopCount:mean -nan
attr interpolationmode none
attr title "hop count of arrived packets, mean"
scalar Net60.rte[7].app hopCount:max -nan
attr interpolationmode none
attr title "hop count of arrived packets, max"
scalar Net60.rte[7].app endToEndDelay:mean -nan
attr interpolationmode none
attr title "end-to-end delay of arrived packets, mean"
attr unit s
scalar Net60.rte[7].app endToEndDelay:max -nan
attr interpolationmode none
attr title "end-to-end delay of arrived packets, max"
attr unit s
statistic Net60.rte[7].routing outputIf:histogram
field count 9
field mean 0
field stddev 0
field min 0
field max 0
field sum 0
field sqrsum 0
attr interpolationmode none
attr title "output interface for each routed packet, histogram"
bin	-inf	0
bin	-0.5	0
bin	-0.48	0
bin	-0.46	0
bin	-0.44	0
bin	-0.42	0
bin	-0.4	0
bin	-0.38	0
bin	-0.36	0
bin	-0.34	0
bin	-0.32	0
bin	-0.3	0
bin	-0.28	0
bin	-0.26	0
bin	-0.24	0
bin	-0.22	0
bin	-0.2	0
bin	-0.18	0
bin	-0.16	0
bin	-0.14	0
bin	-0.12	0
bin	-0.1	0
bin	-0.08	0
bin	-0.06	0
bin	-0.04	0
bin	-0.02	0
bin	0	9
bin	0.02	0
bin	0.04	0
bin	0.06	0
bin	0.08	0
bin	0.1	0
bin	0.12	0
bin	0.14	0
bin	0.16	0
bin	0.18	0
bin	0.2	0
bin	0.22	0
bin	0.24	0
bin	0.26	0
bin	0.28	0
bin	0.3	0
bin	0.32	0
bin	0.34	0
bin	0.36	0
bin	0.38	0
bin	0.4	0
bin	0.42	0
bin	0.44	0
bin	0.46	0
bin	0.48	0
bin	0.5	0
scalar Net60.rte[7].routing drop:count 0
attr interpolationmode none
attr title "dropped packet byte length, count"
attr unit bytes
scalar Net60.rte[7].routing drop:sum 0
attr interpolationmode none
attr title "dropped packet byte length, sum"
attr unit bytes
scalar Net60.rte[7].queue[0] rxBytes:count 0
attr interpolationmode none
attr title "received packet byte length, count"
attr unit bytes
scalar Net60.rte[7].queue[0] rxBytes:sum 0
attr interpolationmode none
attr title "received packet byte length, sum"
attr unit bytes
statistic Net60.rte[7].queue[0] rxBytes:histogram
field count 0
field mean -nan
field stddev -nan
field min -nan
field max -nan
field sum 0
field sqrsum 0
attr interpolationmode none
attr title "received packet byte length, histogram"
attr unit bytes
bin	-inf	0
bin	0	0
bin	1	0
scalar Net60.rte[7].queue[0] txBytes:count 9
attr interpolationmode none
attr title "transmitting packet byte length, count"
attr unit bytes
scalar Net60.rte[7].queue[0] txBytes:sum 294912
attr interpolationmode none
attr title "transmitting packet byte length, sum"
attr unit bytes
statistic Net60.rte[7].queue[0] txBytes:histogram
field count 9
field mean 32768
field stddev 0
field min 32768
field max 32768
field sum 294912
field sqrsum 9663676416
attr interpolationmode none
attr title "transmitting packet byte length, histogram"
attr unit bytes
bin	-inf	0
bin	32767	0
bin	32768	9
bin	32769	0
scalar Net60.rte[7].queue[0] busy:timeavg 0.26513936608983
attr interpolationmode sample-hold
attr title "server busy state, timeavg"
scalar Net60.rte[7].queue[0] qlen:timeavg 0.031772111372571
attr interpolationmode sample-hold
attr title "queue length, timeavg"
scalar Net60.rte[7].queue[0] qlen:max 1
attr interpolationmode sample-hold
attr title "queue length, max"
scalar Net60.rte[7].queue[0] drop:count 0
attr interpolationmode none
attr title "dropped packet byte length, count"
attr unit bytes
scalar Net60.rte[7].queue[0] drop:sum 0
attr interpolationmode none
attr title "dropped packet byte length, sum"
attr unit bytes
scalar Net60.rte[7].queue[1] rxBytes:count 0
attr interpolationmode none
attr title "received packet byte length, count"
attr unit bytes
scalar Net60.rte[7].queue[1] rxBytes:sum 0
attr interpolationmode none
attr title "received packet byte length, sum"
attr unit bytes
statistic Net60.rte[7].queue[1] rxBytes:histogram
field count 0
field mean -nan
field stddev -nan
field min -nan
field max -nan
field sum 0
field sqrsum 0
attr interpolationmode none
attr title "received packet byte length, histogram"
attr unit bytes
bin	-inf	0
bin	0	0
bin	1	0
scalar Net60.rte[7].queue[1] txBytes:count 0
attr interpolationmode none
attr title "transmitting packet byte length, count"
attr unit bytes
scalar Net60.rte[7].queue[1] txBytes:sum 0
attr interpolationmode none
attr title "transmitting packet byte length, sum"
attr unit bytes
statistic Net60.rte[7].queue[1] txBytes:histogram
field count 0
field mean -nan
field stddev -nan
field min -nan
field max -nan
field sum 0
field sqrsum 0
attr interpolationmode none
attr title "transmitting packet byte length, histogram"
attr unit bytes
bin	-inf	0
bin	0	0
bin	1	0
scalar Net60.rte[7].queue[1] busy:timeavg 0
attr interpolationmode sample-hold
attr title "server busy state, timeavg"
scalar Net60.rte[7].queue[1] qlen:timeavg 0
attr interpolationmode sample-hold
attr title "queue length, timeavg"
scalar Net60.rte[7].queue[1] qlen:max 0
attr interpolationmode sample-hold
attr title "queue length, max"
scalar Net60.rte[7].queue[1] drop:count 0
attr interpolationmode none
attr title "dropped packet byte length, count"
attr unit bytes
scalar Net60.rte[7].queue[1] drop:sum 0
attr interpolationmode none
attr title "dropped packet byte length, sum"
attr unit bytes
scalar Net60.rte[7].queue[2] rxBytes:count 2
attr interpolationmode none
attr title "received packet byte length, count"
attr unit bytes
scalar Net60.rte[7].queue[2] rxBytes:sum 65536
attr interpolationmode none
attr title "received packet byte length, sum"
attr unit bytes
statistic Net60.rte[7].queue[2] rxBytes:histogram
field count 2
field mean 32768
field stddev 0
field min 32768
field max 32768
field sum 65536
field sqrsum 2147483648
attr interpolationmode none
attr title "received packet byte length, histogram"
attr unit bytes
bin	-inf	0
bin	32767	0
bin	32768	2
bin	32769	0
scalar Net60.rte[7].queue[2] txBytes:count 0
attr interpolationmode none
attr title "transmitting packet byte length, count"
attr unit bytes
scalar Net60.rte[7].queue[2] txBytes:sum 0
attr interpolationmode none
attr title "transmitting packet byte length, sum"
attr unit bytes
statistic Net60.rte[7].queue[2] txBytes:histogram
field count 0
field mean -nan
field stddev -nan
field min -nan
field max -nan
field sum 0
field sqrsum 0
attr interpolationmode none
attr title "transmitting packet byte length, histogram"
attr unit bytes
bin	-inf	0
bin	0	0
bin	1	0
scalar Net60.rte[7].queue[2] busy:timeavg 0
attr interpolationmode sample-hold
attr title "server busy state, timeavg"
scalar Net60.rte[7].queue[2] qlen:timeavg 0
attr interpolationmode sample-hold
attr title "queue length, timeavg"
scalar Net60.rte[7].queue[2] qlen:max 0
attr interpolationmode sample-hold
attr title "queue length, max"
scalar Net60.rte[7].queue[2] drop:count 0
attr interpolationmode none
attr title "dropped packet byte length, count"
attr unit bytes
scalar Net60.rte[7].queue[2] drop:sum 0
attr interpolationmode none
attr title "dropped packet byte length, sum"
attr unit bytes
scalar Net60.rte[7].queue[3] rxBytes:count 5
attr interpolationmode none
attr title "received packet byte length, count"
attr unit bytes
scalar Net60.rte[7].queue[3] rxBytes:sum 163840
attr interpolationmode none
attr title "received packet byte length, sum"
attr unit bytes
statistic Net60.rte[7].queue[3] rxBytes:histogram
field count 5
field mean 32768
field stddev 0
field min 32768
field max 32768
field sum 163840
field sqrsum 5368709120
attr interpolationmode none
attr title "received packet byte length, histogram"
attr unit bytes
bin	-inf	0
bin	32767	0
bin	32768	5
bin	32769	0
scalar Net60.rte[7].queue[3] txBytes:count 0
attr interpolationmode none
attr title "transmitting packet byte length, count"
attr unit bytes
scalar Net60.rte[7].queue[3] txBytes:sum 0
attr interpolationmode none
attr title "transmitting packet byte length, sum"
attr unit bytes
statistic Net60.rte[7].queue[3] txBytes:histogram
field count 0
field mean -nan
field stddev -nan
field min -nan
field max -nan
field sum 0
field sqrsum 0
attr interpolationmode none
attr title "transmitting packet byte length, histogram"
attr unit bytes
bin	-inf	0
bin	0	0
bin	1	0
scalar Net60.rte[7].queue[3] busy:timeavg 0
attr interpolationmode sample-hold
attr title "server busy state, timeavg"
scalar Net60.rte[7].queue[3] qlen:timeavg 0
attr interpolationmode sample-hold
attr title "queue length, timeavg"
scalar Net60.rte[7].queue[3] qlen:max 0
attr interpolationmode sample-hold
attr title "queue length, max"
scalar Net60.rte[7].queue[3] drop:count 0
attr interpolationmode none
attr title "dropped packet byte length, count"
attr unit bytes
scalar Net60.rte[7].queue[3] drop:sum 0
attr interpolationmode none
attr title "dropped packet byte length, sum"
attr unit bytes
scalar Net60.rte[8].app hopCount:mean -nan
attr interpolationmode none
attr title "hop count of arrived packets, mean"
scalar Net60.rte[8].app hopCount:max -nan
attr interpolationmode none
attr title "hop count of arrived packets, max"
scalar Net60.rte[8].app endToEndDelay:mean -nan
attr interpolationmode none
attr title "end-to-end delay of arrived packets, mean"
attr unit s
scalar Net60.rte[8].app endToEndDelay:max -nan
attr interpolationmode none
attr title "end-to-end delay of arrived packets, max"
attr unit s
statistic Net60.rte[8].routing outputIf:histogram
field count 2
field mean 0
field stddev 0
field min 0
field max 0
field sum 0
field sqrsum 0
attr interpolationmode none
attr title "output interface for each routed packet, histogram"
bin	-inf	0
bin	-0.5	0
bin	-0.48	0
bin	-0.46	0
bin	-0.44	0
bin	-0.42	0
bin	-0.4	0
bin	-0.38	0
bin	-0.36	0
bin	-0.34	0
bin	-0.32	0
bin	-0.3	0
bin	-0.28	0
bin	-0.26	0
bin	-0.24	0
bin	-0.22	0
bin	-0.2	0
bin	-0.18	0
bin	-0.16	0
bin	-0.14	0
bin	-0.12	0
bin	-0.1	0
bin	-0.08	0
bin	-0.06	0
bin	-0.04	0
bin	-0.02	0
bin	0	2
bin	0.02	0
bin	0.04	0
bin	0.06	0
bin	0.08	0
bin	0.1	0
bin	0.12	0
bin	0.14	0
bin	0.16	0
bin	0.18	0
bin	0.2	0
bin	0.22	0
bin	0.24	0
bin	0.26	0
bin	0.28	0
bin	0.3	0
bin	0.32	0
bin	0.34	0
bin	0.36	0
bin	0.38	0
bin	0.4	0
bin	0.42	0
bin	0.44	0
bin	0.46	0
bin	0.48	0
bin	0.5	0
scalar Net60.rte[8].routing drop:count 0
attr interpolationmode none
attr title "dropped packet byte length, count"
attr unit bytes
scalar Net60.rte[8].routing drop:sum 0
attr interpolationmode none
attr title "dropped packet byte length, sum"
attr unit bytes
scalar Net60.rte[8].queue[0] rxBytes:count 0
attr interpolationmode none
attr title "received packet byte length, count"
attr unit bytes
scalar Net60.rte[8].queue[0] rxBytes:sum 0
attr interpolationmode none
attr title "received packet byte length, sum"
attr unit bytes
statistic Net60.rte[8].queue[0] rxBytes:histogram
field count 0
field mean -nan
field stddev -nan
field min -nan
field max -nan
field sum 0
field sqrsum 0
attr interpolationmode none
attr title "received packet byte length, histogram"
attr unit bytes
bin	-inf	0
bin	0	0
bin	1	0
scalar Net60.rte[8].queue[0] txBytes:count 2
attr interpolationmode none
attr title "transmitting packet byte length, count"
attr unit bytes
scalar Net60.rte[8].queue[0] txBytes:sum 65536
attr interpolationmode none
attr title "transmitting packet byte length, sum"
attr unit bytes
statistic Net60.rte[8].queue[0] txBytes:histogram
field count 2
field mean 32768
field stddev 0
field min 32768
field max 32768
field sum 65536
field sqrsum 2147483648
attr interpolationmode none
attr title "transmitting packet byte length, histogram"
attr unit bytes
bin	-inf	0
bin	32767	0
bin	32768	2
bin	32769	0
scalar Net60.rte[8].queue[0] busy:timeavg 0.058919859131073
attr interpolationmode sample-hold
attr title "server busy state, timeavg"
scalar Net60.rte[8].queue[0] qlen:timeavg 0
attr interpolationmode sample-hold
attr title "queue length, timeavg"
scalar Net60.rte[8].queue[0] qlen:max 0
attr interpolationmode sample-hold
attr title "queue length, max"
scalar Net60.rte[8].queue[0] drop:count 0
attr interpolationmode none
attr title "dropped packet byte length, count"
attr unit bytes
scalar Net60.rte[8].queue[0] drop:sum 0
attr interpolationmode none
attr title "dropped packet byte length, sum"
attr unit bytes
scalar Net60.rte[9].app hopCount:mean -nan
attr interpolationmode none
attr title "hop count of arrived packets, mean"
scalar Net60.rte[9].app hopCount:max -nan
attr interpolationmode none
attr title "hop count of arrived packets, max"
scalar Net60.rte[9].app endToEndDelay:mean -nan
attr interpolationmode none
attr title "end-to-end delay of arrived packets, mean"
attr unit s
scalar Net60.rte[9].app endToEndDelay:max -nan
attr interpolationmode none
attr title "end-to-end delay of arrived packets, max"
attr unit s
statistic Net60.rte[9].routing outputIf:histogram
field count 3
field mean 1
field stddev 0
field min 1
field max 1
field sum 3
field sqrsum 3
attr interpolationmode none
attr title "output interface for each routed packet, histogram"
bin	-inf	0
bin	0	0
bin	1	3
bin	2	0
scalar Net60.rte[9].routing drop:count 0
attr interpolationmode none
attr title "dropped packet byte length, count"
attr unit bytes
scalar Net60.rte[9].routing drop:sum 0
attr interpolationmode none
attr title "dropped packet byte length, sum"
attr unit bytes
scalar Net60.rte[9].queue[0] rxBytes:count 0
attr interpolationmode none
attr title "received packet byte length, count"
attr unit bytes
scalar Net60.rte[9].queue[0] rxBytes:sum 0
attr interpolationmode none
attr title "received packet byte length, sum"
attr unit bytes
statistic Net60.rte[9].queue[0] rxBytes:histogram
field count 0
field mean -nan
field stddev -nan
field min -nan
field max -nan
field sum 0
field sqrsum 0
attr interpolationmode none
attr title "received packet byte length, histogram"
attr unit bytes
bin	-inf	0
bin	0	0
bin	1	0
scalar Net60.rte[9].queue[0] txBytes:count 0
attr interpolationmode none
attr title "transmitting packet byte length, count"
attr unit bytes
scalar Net60.rte[9].queue[0] txBytes:sum 0
attr interpolationmode none
attr title "transmitting packet byte length, sum"
attr unit bytes
statistic Net60.rte[9].queue[0] txBytes:histogram
field count 0
field mean -nan
field stddev -nan
field min -nan
field max -nan
field sum 0
field sqrsum 0
attr interpolationmode none
attr title "transmitting packet byte length, histogram"
attr unit bytes
bin	-inf	0
bin	0	0
bin	1	0
scalar Net60.rte[9].queue[0] busy:timeavg 0
attr interpolationmode sample-hold
attr title "server busy state, timeavg"
scalar Net60.rte[9].queue[0] qlen:timeavg 0
attr interpolationmode sample-hold
attr title "queue length, timeavg"
scalar Net60.rte[9].queue[0] qlen:max 0
attr interpolationmode sample-hold
attr title "queue length, max"
scalar Net60.rte[9].queue[0] drop:count 0
attr interpolationmode none
attr title "dropped packet byte length, count"
attr unit bytes
scalar Net60.rte[9].queue[0] drop:sum 0
attr interpolationmode none
attr title "dropped packet byte length, sum"
attr unit bytes
scalar Net60.rte[9].queue[1] rxBytes:count 0
attr interpolationmode none
attr title "received packet byte length, count"
attr unit bytes
scalar Net60.rte[9].queue[1] rxBytes:sum 0
attr interpolationmode none
attr title "received packet byte length, sum"
attr unit bytes
statistic Net60.rte[9].queue[1] rxBytes:histogram
field count 0
field mean -nan
field stddev -nan
field min -nan
field max -nan
field sum 0
field sqrsum 0
attr interpolationmode none
attr title "received packet byte length, histogram"
attr unit bytes
bin	-inf	0
bin	0	0
bin	1	0
scalar Net60.rte[9].queue[1] txBytes:count 3
attr interpolationmode none
attr title "transmitting packet byte length, count"
attr unit bytes
scalar Net60.rte[9].queue[1] txBytes:sum 98304
attr interpolationmode none
attr title "transmitting packet byte length, sum"
attr unit bytes
statistic Net60.rte[9].queue[1] txBytes:histogram
field count 3
field mean 32768
field stddev 0
field min 32768
field max 32768
field sum 98304
field sqrsum 3221225472
attr interpolationmode none
attr title "transmitting packet byte length, histogram"
attr unit bytes
bin	-inf	0
bin	32767	0
bin	32768	3
bin	32769	0
scalar Net60.rte[9].queue[1] busy:timeavg 0.08837978869661
attr interpolationmode sample-hold
attr title "server busy state, timeavg"
scalar Net60.rte[9].queue[1] qlen:timeavg 0
attr interpolationmode sample-hold
attr title "queue length, timeavg"
scalar Net60.rte[9].queue[1] qlen:max 0
attr interpolationmode sample-hold
attr title "queue length, max"
scalar Net60.rte[9].queue[1] drop:count 0
attr interpolationmode none
attr title "dropped packet byte length, count"
attr unit bytes
scalar Net60.rte[9].queue[1] drop:sum 0
attr interpolationmode none
attr title "dropped packet byte length, sum"
attr unit bytes
scalar Net60.rte[10].app hopCount:mean -nan
attr interpolationmode none
attr title "hop count of arrived packets, mean"
scalar Net60.rte[10].app hopCount:max -nan
attr interpolationmode none
attr title "hop count of arrived packets, max"
scalar Net60.rte[10].app endToEndDelay:mean -nan
attr interpolationmode none
attr title "end-to-end delay of arrived packets, mean"
attr unit s
scalar Net60.rte[10].app endToEndDelay:max -nan
attr interpolationmode none
attr title "end-to-end delay of arrived packets, max"
attr unit s
statistic Net60.rte[10].routing outputIf:histogram
field count 48
field mean 0.66666666666667
field stddev 0.95278613468066
field min 0
field max 2
field sum 32
field sqrsum 64
attr interpolationmode none
attr title "output interface for each routed packet, histogram"
bin	-inf	0
bin	0	32
bin	1	0
bin	2	16
bin	3	0
scalar Net60.rte[10].routing drop:count 0
attr interpolationmode none
attr title "dropped packet byte length, count"
attr unit bytes
scalar Net60.rte[10].routing drop:sum 0
attr interpolationmode none
attr title "dropped packet byte length, sum"
attr unit bytes
scalar Net60.rte[10].queue[0] rxBytes:count 11
attr interpolationmode none
attr title "received packet byte length, count"
attr unit bytes
scalar Net60.rte[10].queue[0] rxBytes:sum 360448
attr interpolationmode none
attr title "received packet byte length, sum"
attr unit bytes
statistic Net60.rte[10].queue[0] rxBytes:histogram
field count 11
field mean 32768
field stddev 0
field min 32768
field max 32768
field sum 360448
field sqrsum 11811160064
attr interpolationmode none
attr title "received packet byte length, histogram"
attr unit bytes
bin	-inf	0
bin	32767	0
bin	32768	11
bin	32769	0
scalar Net60.rte[10].queue[0] txBytes:count 27
attr interpolationmode none
attr title "transmitting packet byte length, count"
attr unit bytes
scalar Net60.rte[10].queue[0] txBytes:sum 884736
attr interpolationmode none
attr title "transmitting packet byte length, sum"
attr unit bytes
statistic Net60.rte[10].queue[0] txBytes:histogram
field count 27
field mean 32768
field stddev 0
field min 32768
field max 32768
field sum 884736
field sqrsum 28991029248
attr interpolationmode none
attr title "transmitting packet byte length, histogram"
attr unit bytes
bin	-inf	0
bin	32767	0
bin	32768	27
bin	32769	0
scalar Net60.rte[10].queue[0] busy:timeavg 0.79166466910886
attr interpolationmode sample-hold
attr title "server busy state, timeavg"
scalar Net60.rte[10].queue[0] qlen:timeavg 1.2479773056833
attr interpolationmode sample-hold
attr title "queue length, timeavg"
scalar Net60.rte[10].queue[0] qlen:max 5
attr interpolationmode sample-hold
attr title "queue length, max"
scalar Net60.rte[10].queue[0] drop:count 0
attr interpolationmode none
attr title "dropped packet byte length, count"
attr unit bytes
scalar Net60.rte[10].queue[0] drop:sum 0
attr interpolationmode none
attr title "dropped packet byte length, sum"
attr unit bytes
scalar Net60.rte[10].queue[1] rxBytes:count 8
attr interpolationmode none
attr title "received packet byte length, count"
attr unit bytes
scalar Net60.rte[10].queue[1] rxBytes:sum 262144
attr interpolationmode none
attr title "received packet byte length, sum"
attr unit bytes
statistic Net60.rte[10].queue[1] rxBytes:histogram
field count 8
field mean 32768
field stddev 0
field min 32768
field max 32768
field sum 262144
field sqrsum 8589934592
attr interpolationmode none
attr title "received packet byte length, histogram"
attr unit bytes
bin	-inf	0
bin	32767	0
bin	32768	8
bin	32769	0
scalar Net60.rte[10].queue[1] txBytes:count 0
attr interpolationmode none
attr title "transmitting packet byte length, count"
attr unit bytes
scalar Net60.rte[10].queue[1] txBytes:sum 0
attr interpolationmode none
attr title "transmitting packet byte length, sum"
attr unit bytes
statistic Net60.rte[10].queue[1] txBytes:histogram
field count 0
field mean -nan
field stddev -nan
field min -nan
field max -nan
field sum 0
field sqrsum 0
attr interpolationmode none
attr title "transmitting packet byte length, histogram"
attr unit bytes
bin	-inf	0
bin	0	0
bin	1	0
scalar Net60.rte[10].queue[1] busy:timeavg 0
attr interpolationmode sample-hold
attr title "server busy state, timeavg"
scalar Net60.rte[10].queue[1] qlen:timeavg 0
attr interpolationmode sample-hold
attr title "queue length, timeavg"
scalar Net60.rte[10].queue[1] qlen:max 0
attr interpolationmode sample-hold
attr title "queue length, max"
scalar Net60.rte[10].queue[1] drop:count 0
attr interpolationmode none
attr title "dropped packet byte length, count"
attr unit bytes
scalar Net60.rte[10].queue[1] drop:sum 0
attr interpolationmode none
attr title "dropped packet byte length, sum"
attr unit bytes
scalar Net60.rte[10].queue[2] rxBytes:count 26
attr interpolationmode none
attr title "received packet byte length, count"
attr unit bytes
scalar Net60.rte[10].queue[2] rxBytes:sum 851968
attr interpolationmode none
attr title "received packet byte length, sum"
attr unit bytes
statistic Net60.rte[10].queue[2] rxBytes:histogram
field count 26
field mean 32768
field stddev 0
field min 32768
field max 32768
field sum 851968
field sqrsum 27917287424
attr interpolationmode none
attr title "received packet byte length, histogram"
attr unit bytes
bin	-inf	0
bin	32767	0
bin	32768	26
bin	32769	0
scalar Net60.rte[10].queue[2] txBytes:count 16
attr interpolationmode none
attr title "transmitting packet byte length, count"
attr unit bytes
scalar Net60.rte[10].queue[2] txBytes:sum 524288
attr interpolationmode none
attr title "transmitting packet byte length, sum"
attr unit bytes
statistic Net60.rte[10].queue[2] txBytes:histogram
field count 16
field mean 32768
field stddev 0
field min 32768
field max 32768
field sum 524288
field sqrsum 17179869184
attr interpolationmode none
attr title "transmitting packet byte length, histogram"
attr unit bytes
bin	-inf	0
bin	32767	0
bin	32768	16
bin	32769	0
scalar Net60.rte[10].queue[2] busy:timeavg 0.47135887304859
attr interpolationmode sample-hold
attr title "server busy state, timeavg"
scalar Net60.rte[10].queue[2] qlen:timeavg 0.20428251142031
attr interpolationmode sample-hold
attr title "queue length, timeavg"
scalar Net60.rte[10].queue[2] qlen:max 2
attr interpolationmode sample-hold
attr title "queue length, max"
scalar Net60.rte[10].queue[2] drop:count 0
attr interpolationmode none
attr title "dropped packet byte length, count"
attr unit bytes
scalar Net60.rte[10].queue[2] drop:sum 0
attr interpolationmode none
attr title "dropped packet byte length, sum"
attr unit bytes
scalar Net60.rte[11].app hopCount:mean -nan
attr interpolationmode none
attr title "hop count of arrived packets, mean"
scalar Net60.rte[11].app hopCount:max -nan
attr interpolationmode none
attr title "hop count of arrived packets, max"
scalar Net60.rte[11].app endToEndDelay:mean -nan
attr interpolationmode none
attr title "end-to-end delay of arrived packets, mean"
attr unit s
scalar Net60.rte[11].app endToEndDelay:max -nan
attr interpolationmode none
attr title "end-to-end delay of arrived packets, max"
attr unit s
statistic Net60.rte[11].routing outputIf:histogram
field count 8
field mean 1
field stddev 0
field min 1
field max 1
field sum 8
field sqrsum 8
attr interpolationmode none
attr title "output interface for each routed packet, histogram"
bin	-inf	0
bin	0	0
bin	1	8
bin	2	0
scalar Net60.rte[11].routing drop:count 0
attr interpolationmode none
attr title "dropped packet byte length, count"
attr unit bytes
scalar Net60.rte[11].routing drop:sum 0
attr interpolationmode none
attr title "dropped packet byte length, sum"
attr unit bytes
scalar Net60.rte[11].queue[0] rxBytes:count 3
attr interpolationmode none
attr title "received packet byte length, count"
attr unit bytes
scalar Net60.rte[11].queue[0] rxBytes:sum 98304
attr interpolationmode none
attr title "received packet byte length, sum"
attr unit bytes
statistic Net60.rte[11].queue[0] rxBytes:histogram
field count 3
field mean 32768
field stddev 0
field min 32768
field max 32768
field sum 98304
field sqrsum 3221225472
attr interpolationmode none
attr title "received packet byte length, histogram"
attr unit bytes
bin	-inf	0
bin	32767	0
bin	32768	3
bin	32769	0
scalar Net60.rte[11].queue[0] txBytes:count 0
attr interpolationmode none
attr title "transmitting packet byte length, count"
attr unit bytes
scalar Net60.rte[11].queue[0] txBytes:sum 0
attr interpolationmode none
attr title "transmitting packet byte length, sum"
attr unit bytes
statistic Net60.rte[11].queue[0] txBytes:histogram
field count 0
field mean -nan
field stddev -nan
field min -nan
field max -nan
field sum 0
field sqrsum 0
attr interpolationmode none
attr title "transmitting packet byte length, histogram"
attr unit bytes
bin	-inf	0
bin	0	0
bin	1	0
scalar Net60.rte[11].queue[0] busy:timeavg 0
attr interpolationmode sample-hold
attr title "server busy state, timeavg"
scalar Net60.rte[11].queue[0] qlen:timeavg 0
attr interpolationmode sample-hold
attr title "queue length, timeavg"
scalar Net60.rte[11].queue[0] qlen:max 0
attr interpolationmode sample-hold
attr title "queue length, max"
scalar Net60.rte[11].queue[0] drop:count 0
attr interpolationmode none
attr title "dropped packet byte length, count"
attr unit bytes
scalar Net60.rte[11].queue[0] drop:sum 0
attr interpolationmode none
attr title "dropped packet byte length, sum"
attr unit bytes
scalar Net60.rte[11].queue[1] rxBytes:count 0
attr interpolationmode none
attr title "received packet byte length, count"
attr unit bytes
scalar Net60.rte[11].queue[1] rxBytes:sum 0
attr interpolationmode none
attr title "received packet byte length, sum"
attr unit bytes
statistic Net60.rte[11].queue[1] rxBytes:histogram
field count 0
field mean -nan
field stddev -nan
field min -nan
field max -nan
field sum 0
field sqrsum 0
attr interpolationmode none
attr title "received packet byte length, histogram"
attr unit bytes
bin	-inf	0
bin	0	0
bin	1	0
scalar Net60.rte[11].queue[1] txBytes:count 8
attr interpolationmode none
attr title "transmitting packet byte length, count"
attr unit bytes
scalar Net60.rte[11].queue[1] txBytes:sum 262144
attr interpolationmode none
attr title "transmitting packet byte length, sum"
attr unit bytes
statistic Net60.rte[11].queue[1] txBytes:histogram
field count 8
field mean 32768
field stddev 0
field min 32768
field max 32768
field sum 262144
field sqrsum 8589934592
attr interpolationmode none
attr title "transmitting packet byte length, histogram"
attr unit bytes
bin	-inf	0
bin	32767	0
bin	32768	8
bin	32769	0
scalar Net60.rte[11].queue[1] busy:timeavg 0.22112689818607
attr interpolationmode sample-hold
attr title "server busy state, timeavg"
scalar Net60.rte[11].queue[1] qlen:timeavg 0.020829572264607
attr interpolationmode sample-hold
attr title "queue length, timeavg"
scalar Net60.rte[11].queue[1] qlen:max 1
attr interpolationmode sample-hold
attr title "queue length, max"
scalar Net60.rte[11].queue[1] drop:count 0
attr interpolationmode none
attr title "dropped packet byte length, count"
attr unit bytes
scalar Net60.rte[11].queue[1] drop:sum 0
attr interpolationmode none
attr title "dropped packet byte length, sum"
attr unit bytes
scalar Net60.rte[11].queue[2] rxBytes:count 1
attr interpolationmode none
attr title "received packet byte length, count"
attr unit bytes
scalar Net60.rte[11].queue[2] rxBytes:sum 32768
attr interpolationmode none
attr title "received packet byte length, sum"
attr unit bytes
statistic Net60.rte[11].queue[2] rxBytes:histogram
field count 1
field mean 32768
field stddev -nan
field min 32768
field max 32768
field sum 32768
field sqrsum 1073741824
attr interpolationmode none
attr title "received packet byte length, histogram"
attr unit bytes
bin	-inf	0
bin	32767	0
bin	32768	1
bin	32769	0
scalar Net60.rte[11].queue[2] txBytes:count 0
attr interpolationmode none
attr title "transmitting packet byte length, count"
attr unit bytes
scalar Net60.rte[11].queue[2] txBytes:sum 0
attr interpolationmode none
attr title "transmitting packet byte length, sum"
attr unit bytes
statistic Net60.rte[11].queue[2] txBytes:histogram
field count 0
field mean -nan
field stddev -nan
field min -nan
field max -nan
field sum 0
field sqrsum 0
attr interpolationmode none
attr title "transmitting packet byte length, histogram"
attr unit bytes
bin	-inf	0
bin	0	0
bin	1	0
scalar Net60.rte[11].queue[2] busy:timeavg 0
attr interpolationmode sample-hold
attr title "server busy state, timeavg"
scalar Net60.rte[11].queue[2] qlen:timeavg 0
attr interpolationmode sample-hold
attr title "queue length, timeavg"
scalar Net60.rte[11].queue[2] qlen:max 0
attr interpolationmode sample-hold
attr title "queue length, max"
scalar Net60.rte[11].queue[2] drop:count 0
attr interpolationmode none
attr title "dropped packet byte length, count"
attr unit bytes
scalar Net60.rte[11].queue[2] drop:sum 0
attr interpolationmode none
attr title "dropped packet byte length, sum"
attr unit bytes
scalar Net60.rte[11].queue[3] rxBytes:count 2
attr interpolationmode none
attr title "received packet byte length, count"
attr unit bytes
scalar Net60.rte[11].queue[3] rxBytes:sum 65536
attr interpolationmode none
attr title "received packet byte length, sum"
attr unit bytes
statistic Net60.rte[11].queue[3] rxBytes:histogram
field count 2
field mean 32768
field stddev 0
field min 32768
field max 32768
field sum 65536
field sqrsum 2147483648
attr interpolationmode none
attr title "received packet byte length, histogram"
attr unit bytes
bin	-inf	0
bin	32767	0
bin	32768	2
bin	32769	0
scalar Net60.rte[11].queue[3] txBytes:count 0
attr interpolationmode none
attr title "transmitting packet byte length, count"
attr unit bytes
scalar Net60.rte[11].queue[3] txBytes:sum 0
attr interpolationmode none
attr title "transmitting packet byte length, sum"
attr unit bytes
statistic Net60.rte[11].queue[3] txBytes:histogram
field count 0
field mean -nan
field stddev -nan
field min -nan
field max -nan
field sum 0
field sqrsum 0
attr interpolationmode none
attr title "transmitting packet byte length, histogram"
attr unit bytes
bin	-inf	0
bin	0	0
bin	1	0
scalar Net60.rte[11].queue[3] busy:timeavg 0
attr interpolationmode sample-hold
attr title "server busy state, timeavg"
scalar Net60.rte[11].queue[3] qlen:timeavg 0
attr interpolationmode sample-hold
attr title "queue length, timeavg"
scalar Net60.rte[11].queue[3] qlen:max 0
attr interpolationmode sample-hold
attr title "queue length, max"
scalar Net60.rte[11].queue[3] drop:count 0
attr interpolationmode none
attr title "dropped packet byte length, count"
attr unit bytes
scalar Net60.rte[11].queue[3] drop:sum 0
attr interpolationmode none
attr title "dropped packet byte length, sum"
attr unit bytes
scalar Net60.rte[12].app hopCount:mean -nan
attr interpolationmode none
attr title "hop count of arrived packets, mean"
scalar Net60.rte[12].app hopCount:max -nan
attr interpolationmode none
attr title "hop count of arrived packets, max"
scalar Net60.rte[12].app endToEndDelay:mean -nan
attr interpolationmode none
attr title "end-to-end delay of arrived packets, mean"
attr unit s
scalar Net60.rte[12].app endToEndDelay:max -nan
attr interpolationmode none
attr title "end-to-end delay of arrived packets, max"
attr unit s
statistic Net60.rte[12].routing outputIf:histogram
field count 6
field mean 0.16666666666667
field stddev 0.40824829046386
field min 0
field max 1
field sum 1
field sqrsum 1
attr interpolationmode none
attr title "output interface for each routed packet, histogram"
bin	-inf	0
bin	0	5
bin	1	1
bin	2	0
scalar Net60.rte[12].routing drop:count 0
attr interpolationmode none
attr title "dropped packet byte length, count"
attr unit bytes
scalar Net60.rte[12].routing drop:sum 0
attr interpolationmode none
attr title "dropped packet byte length, sum"
attr unit bytes
scalar Net60.rte[12].queue[0] rxBytes:count 0
attr interpolationmode none
attr title "received packet byte length, count"
attr unit bytes
scalar Net60.rte[12].queue[0] rxBytes:sum 0
attr interpolationmode none
attr title "received packet byte length, sum"
attr unit bytes
statistic Net60.rte[12].queue[0] rxBytes:histogram
field count 0
field mean -nan
field stddev -nan
field min -nan
field max -nan
field sum 0
field sqrsum 0
attr interpolationmode none
attr title "received packet byte length, histogram"
attr unit bytes
bin	-inf	0
bin	0	0
bin	1	0
scalar Net60.rte[12].queue[0] txBytes:count 5
attr interpolationmode none
attr title "transmitting packet byte length, count"
attr unit bytes
scalar Net60.rte[12].queue[0] txBytes:sum 163840
attr interpolationmode none
attr title "transmitting packet byte length, sum"
attr unit bytes
statistic Net60.rte[12].queue[0] txBytes:histogram
field count 5
field mean 32768
field stddev 0
field min 32768
field max 32768
field sum 163840
field sqrsum 5368709120
attr interpolationmode none
attr title "transmitting packet byte length, histogram"
attr unit bytes
bin	-inf	0
bin	32767	0
bin	32768	5
bin	32769	0
scalar Net60.rte[12].queue[0] busy:timeavg 0.14729964782768
attr interpolationmode sample-hold
attr title "server busy state, timeavg"
scalar Net60.rte[12].queue[0] qlen:timeavg 0
attr interpolationmode sample-hold
attr title "queue length, timeavg"
scalar Net60.rte[12].queue[0] qlen:max 0
attr interpolationmode sample-hold
attr title "queue length, max"
scalar Net60.rte[12].queue[0] drop:count 0
attr interpolationmode none
attr title "dropped packet byte length, count"
attr unit bytes
scalar Net60.rte[12].queue[0] drop:sum 0
attr interpolationmode none
attr title "dropped packet byte length, sum"
attr unit bytes
scalar Net60.rte[12].queue[1] rxBytes:count 0
attr interpolationmode none
attr title "received packet byte length, count"
attr unit bytes
scalar Net60.rte[12].queue[1] rxBytes:sum 0
attr interpolationmode none
attr title "received packet byte length, sum"
attr unit bytes
statistic Net60.rte[12].queue[1] rxBytes:histogram
field count 0
field mean -nan
field stddev -nan
field min -nan
field max -nan
field sum 0
field sqrsum 0
attr interpolationmode none
attr title "received packet byte length, histogram"
attr unit bytes
bin	-inf	0
bin	0	0
bin	1	0
scalar Net60.rte[12].queue[1] txBytes:count 1
attr interpolationmode none
attr title "transmitting packet byte length, count"
attr unit bytes
scalar Net60.rte[12].queue[1] txBytes:sum 32768
attr interpolationmode none
attr title "transmitting packet byte length, sum"
attr unit bytes
statistic Net60.rte[12].queue[1] txBytes:histogram
field count 1
field mean 32768
field stddev -nan
field min 32768
field max 32768
field sum 32768
field sqrsum 1073741824
attr interpolationmode none
attr title "transmitting packet byte length, histogram"
attr unit bytes
bin	-inf	0
bin	32767	0
bin	32768	1
bin	32769	0
scalar Net60.rte[12].queue[1] busy:timeavg 0.029459929565537
attr interpolationmode sample-hold
attr title "server busy state, timeavg"
scalar Net60.rte[12].queue[1] qlen:timeavg 0
attr interpolationmode sample-hold
attr title "queue length, timeavg"
scalar Net60.rte[12].queue[1] qlen:max 0
attr interpolationmode sample-hold
attr title "queue length, max"
scalar Net60.rte[12].queue[1] drop:count 0
attr interpolationmode none
attr title "dropped packet byte length, count"
attr unit bytes
scalar Net60.rte[12].queue[1] drop:sum 0
attr interpolationmode none
attr title "dropped packet byte length, sum"
attr unit bytes
scalar Net60.rte[12].queue[2] rxBytes:count 4
attr interpolationmode none
attr title "received packet byte length, count"
attr unit bytes
scalar Net60.rte[12].queue[2] rxBytes:sum 131072
attr interpolationmode none
attr title "received packet byte length, sum"
attr unit bytes
statistic Net60.rte[12].queue[2] rxBytes:histogram
field count 4
field mean 32768
field stddev 0
field min 32768
field max 32768
field sum 131072
field sqrsum 4294967296
attr interpolationmode none
attr title "received packet byte length, histogram"
attr unit bytes
bin	-inf	0
bin	32767	0
bin	32768	4
bin	32769	0
scalar Net60.rte[12].queue[2] txBytes:count 0
attr interpolationmode none
attr title "transmitting packet byte length, count"
attr unit bytes
scalar Net60.rte[12].queue[2] txBytes:sum 0
attr interpolationmode none
attr title "transmitting packet byte length, sum"
attr unit bytes
statistic Net60.rte[12].queue[2] txBytes:histogram
field count 0
field mean -nan
field stddev -nan
field min -nan
field max -nan
field sum 0
field sqrsum 0
attr interpolationmode none
attr title "transmitting packet byte length, histogram"
attr unit bytes
bin	-inf	0
bin	0	0
bin	1	0
scalar Net60.rte[12].queue[2] busy:timeavg 0
attr interpolationmode sample-hold
attr title "server busy state, timeavg"
scalar Net60.rte[12].queue[2] qlen:timeavg 0
attr interpolationmode sample-hold
attr title "queue length, timeavg"
scalar Net60.rte[12].queue[2] qlen:max 0
attr interpolationmode sample-hold
attr title "queue length, max"
scalar Net60.rte[12].queue[2] drop:count 0
attr interpolationmode none
attr title "dropped packet byte length, count"
attr unit bytes
scalar Net60.rte[12].queue[2] drop:sum 0
attr interpolationmode none
attr title "dropped packet byte length, sum"
attr unit bytes
scalar Net60.rte[13].app hopCount:mean -nan
attr interpolationmode none
attr title "hop count of arrived packets, mean"
scalar Net60.rte[13].app hopCount:max -nan
attr interpolationmode none
attr title "hop count of arrived packets, max"
scalar Net60.rte[13].app endToEndDelay:mean -nan
attr interpolationmode none
attr title "end-to-end delay of arrived packets, mean"
attr unit s
scalar Net60.rte[13].app endToEndDelay:max -nan
attr interpolationmode none
attr title "end-to-end delay of arrived packets, max"
attr unit s
statistic Net60.rte[13].routing outputIf:histogram
field count 46
field mean 0.41304347826087
field stddev 0.49782134039886
field min 0
field max 1
field sum 19
field sqrsum 19
attr interpolationmode none
attr title "output interface for each routed packet, histogram"
bin	-inf	0
bin	0	27
bin	1	19
bin	2	0
scalar Net60.rte[13].routing drop:count 0
attr interpolationmode none
attr title "dropped packet byte length, count"
attr unit bytes
scalar Net60.rte[13].routing drop:sum 0
attr interpolationmode none
attr title "dropped packet byte length, sum"
attr unit bytes
scalar Net60.rte[13].queue[0] rxBytes:count 16
attr interpolationmode none
attr title "received packet byte length, count"
attr unit bytes
scalar Net60.rte[13].queue[0] rxBytes:sum 524288
attr interpolationmode none
attr title "received packet byte length, sum"
attr unit bytes
statistic Net60.rte[13].queue[0] rxBytes:histogram
field count 16
field mean 32768
field stddev 0
field min 32768
field max 32768
field sum 524288
field sqrsum 17179869184
attr interpolationmode none
attr title "received packet byte length, histogram"
attr unit bytes
bin	-inf	0
bin	32767	0
bin	32768	16
bin	32769	0
scalar Net60.rte[13].queue[0] txBytes:count 27
attr interpolationmode none
attr title "transmitting packet byte length, count"
attr unit bytes
scalar Net60.rte[13].queue[0] txBytes:sum 884736
attr interpolationmode none
attr title "transmitting packet byte length, sum"
attr unit bytes
statistic Net60.rte[13].queue[0] txBytes:histogram
field count 27
field mean 32768
field stddev 0
field min 32768
field max 32768
field sum 884736
field sqrsum 28991029248
attr interpolationmode none
attr title "transmitting packet byte length, histogram"
attr unit bytes
bin	-inf	0
bin	32767	0
bin	32768	27
bin	32769	0
scalar Net60.rte[13].queue[0] busy:timeavg 0.77344281081924
attr interpolationmode sample-hold
attr title "server busy state, timeavg"
scalar Net60.rte[13].queue[0] qlen:timeavg 0
attr interpolationmode sample-hold
attr title "queue length, timeavg"
scalar Net60.rte[13].queue[0] qlen:max 0
attr interpolationmode sample-hold
attr title "queue length, max"
scalar Net60.rte[13].queue[0] drop:count 0
attr interpolationmode none
attr title "dropped packet byte length, count"
attr unit bytes
scalar Net60.rte[13].queue[0] drop:sum 0
attr interpolationmode none
attr title "dropped packet byte length, sum"
attr unit bytes
scalar Net60.rte[13].queue[1] rxBytes:count 27
attr interpolationmode none
attr title "received packet byte length, count"
attr unit bytes
scalar Net60.rte[13].queue[1] rxBytes:sum 884736
attr interpolationmode none
attr title "received packet byte length, sum"
attr unit bytes
statistic Net60.rte[13].queue[1] rxBytes:histogram
field count 27
field mean 32768
field stddev 0
field min 32768
field max 32768
field sum 884736
field sqrsum 28991029248
attr interpolationmode none
attr title "received packet byte length, histogram"
attr unit bytes
bin	-inf	0
bin	32767	0
bin	32768	27
bin	32769	0
scalar Net60.rte[13].queue[1] txBytes:count 18
attr interpolationmode none
attr title "transmitting packet byte length, count"
attr unit bytes
scalar Net60.rte[13].queue[1] txBytes:sum 589824
attr interpolationmode none
attr title "transmitting packet byte length, sum"
attr unit bytes
statistic Net60.rte[13].queue[1] txBytes:histogram
field count 18
[...]
attr title "received packet byte length, sum"
attr unit bytes
statistic Net60.rte[53].queue[1] rxBytes:histogram
field count 0
field mean -nan
field stddev -nan
field min -nan
field max -nan
field sum 0
field sqrsum 0
attr interpolationmode none
attr title "received packet byte length, histogram"
attr unit bytes
bin	-inf	0
bin	0	0
bin	1	0
scalar Net60.rte[53].queue[1] txBytes:count 0
attr interpolationmode none
attr title "transmitting packet byte length, count"
attr unit bytes
scalar Net60.rte[53].queue[1] txBytes:sum 0
attr interpolationmode none
attr title "transmitting packet byte length, sum"
attr unit bytes
statistic Net60.rte[53].queue[1] txBytes:histogram
field count 0
field mean -nan
field stddev -nan
field min -nan
field max -nan
field sum 0
field sqrsum 0
attr interpolationmode none
attr title "transmitting packet byte length, histogram"
attr unit bytes
bin	-inf	0
bin	0	0
bin	1	0
scalar Net60.rte[53].queue[1] busy:timeavg 0
attr interpolationmode sample-hold
attr title "server busy state, timeavg"
scalar Net60.rte[53].queue[1] qlen:timeavg 0
attr interpolationmode sample-hold
attr title "queue length, timeavg"
scalar Net60.rte[53].queue[1] qlen:max 0
attr interpolationmode sample-hold
attr title "queue length, max"
scalar Net60.rte[53].queue[1] drop:count 0
attr interpolationmode none
attr title "dropped packet byte length, count"
attr unit bytes
scalar Net60.rte[53].queue[1] drop:sum 0
attr interpolationmode none
attr title "dropped packet byte length, sum"
attr unit bytes
scalar Net60.rte[53].queue[2] rxBytes:count 25
attr interpolationmode none
attr title "received packet byte length, count"
attr unit bytes
scalar Net60.rte[53].queue[2] rxBytes:sum 819200
attr interpolationmode none
attr title "received packet byte length, sum"
attr unit bytes
statistic Net60.rte[53].queue[2] rxBytes:histogram
field count 25
field mean 32768
field stddev 0
field min 32768
field max 32768
field sum 819200
field sqrsum 26843545600
attr interpolationmode none
attr title "received packet byte length, histogram"
attr unit bytes
bin	-inf	0
bin	32767	0
bin	32768	25
bin	32769	0
scalar Net60.rte[53].queue[2] txBytes:count 3
attr interpolationmode none
attr title "transmitting packet byte length, count"
attr unit bytes
scalar Net60.rte[53].queue[2] txBytes:sum 98304
attr interpolationmode none
attr title "transmitting packet byte length, sum"
attr unit bytes
statistic Net60.rte[53].queue[2] txBytes:histogram
field count 3
field mean 32768
field stddev 0
field min 32768
field max 32768
field sum 98304
field sqrsum 3221225472
attr interpolationmode none
attr title "transmitting packet byte length, histogram"
attr unit bytes
bin	-inf	0
bin	32767	0
bin	32768	3
bin	32769	0
scalar Net60.rte[53].queue[2] busy:timeavg 0.08837978869661
attr interpolationmode sample-hold
attr title "server busy state, timeavg"
scalar Net60.rte[53].queue[2] qlen:timeavg 0
attr interpolationmode sample-hold
attr title "queue length, timeavg"
scalar Net60.rte[53].queue[2] qlen:max 0
attr interpolationmode sample-hold
attr title "queue length, max"
scalar Net60.rte[53].queue[2] drop:count 0
attr interpolationmode none
attr title "dropped packet byte length, count"
attr unit bytes
scalar Net60.rte[53].queue[2] drop:sum 0
attr interpolationmode none
attr title "dropped packet byte length, sum"
attr unit bytes
scalar Net60.rte[53].queue[3] rxBytes:count 4
attr interpolationmode none
attr title "received packet byte length, count"
attr unit bytes
scalar Net60.rte[53].queue[3] rxBytes:sum 131072
attr interpolationmode none
attr title "received packet byte length, sum"
attr unit bytes
statistic Net60.rte[53].queue[3] rxBytes:histogram
field count 4
field mean 32768
field stddev 0
field min 32768
field max 32768
field sum 131072
field sqrsum 4294967296
attr interpolationmode none
attr title "received packet byte length, histogram"
attr unit bytes
bin	-inf	0
bin	32767	0
bin	32768	4
bin	32769	0
scalar Net60.rte[53].queue[3] txBytes:count 0
attr interpolationmode none
attr title "transmitting packet byte length, count"
attr unit bytes
scalar Net60.rte[53].queue[3] txBytes:sum 0
attr interpolationmode none
attr title "transmitting packet byte length, sum"
attr unit bytes
statistic Net60.rte[53].queue[3] txBytes:histogram
field count 0
field mean -nan
field stddev -nan
field min -nan
field max -nan
field sum 0
field sqrsum 0
attr interpolationmode none
attr title "transmitting packet byte length, histogram"
attr unit bytes
bin	-inf	0
bin	0	0
bin	1	0
scalar Net60.rte[53].queue[3] busy:timeavg 0
attr interpolationmode sample-hold
attr title "server busy state, timeavg"
scalar Net60.rte[53].queue[3] qlen:timeavg 0
attr interpolationmode sample-hold
attr title "queue length, timeavg"
scalar Net60.rte[53].queue[3] qlen:max 0
attr interpolationmode sample-hold
attr title "queue length, max"
scalar Net60.rte[53].queue[3] drop:count 0
attr interpolationmode none
attr title "dropped packet byte length, count"
attr unit bytes
scalar Net60.rte[53].queue[3] drop:sum 0
attr interpolationmode none
attr title "dropped packet byte length, sum"
attr unit bytes
scalar Net60.rte[54].app hopCount:mean -nan
attr interpolationmode none
attr title "hop count of arrived packets, mean"
scalar Net60.rte[54].app hopCount:max -nan
attr interpolationmode none
attr title "hop count of arrived packets, max"
scalar Net60.rte[54].app endToEndDelay:mean -nan
attr interpolationmode none
attr title "end-to-end delay of arrived packets, mean"
attr unit s
scalar Net60.rte[54].app endToEndDelay:max -nan
attr interpolationmode none
attr title "end-to-end delay of arrived packets, max"
attr unit s
statistic Net60.rte[54].routing outputIf:histogram
field count 3
field mean 0
field stddev 0
field min 0
field max 0
field sum 0
field sqrsum 0
attr interpolationmode none
attr title "output interface for each routed packet, histogram"
bin	-inf	0
bin	-0.5	0
bin	-0.48	0
bin	-0.46	0
bin	-0.44	0
bin	-0.42	0
bin	-0.4	0
bin	-0.38	0
bin	-0.36	0
bin	-0.34	0
bin	-0.32	0
bin	-0.3	0
bin	-0.28	0
bin	-0.26	0
bin	-0.24	0
bin	-0.22	0
bin	-0.2	0
bin	-0.18	0
bin	-0.16	0
bin	-0.14	0
bin	-0.12	0
bin	-0.1	0
bin	-0.08	0
bin	-0.06	0
bin	-0.04	0
bin	-0.02	0
bin	0	3
bin	0.02	0
bin	0.04	0
bin	0.06	0
bin	0.08	0
bin	0.1	0
bin	0.12	0
bin	0.14	0
bin	0.16	0
bin	0.18	0
bin	0.2	0
bin	0.22	0
bin	0.24	0
bin	0.26	0
bin	0.28	0
bin	0.3	0
bin	0.32	0
bin	0.34	0
bin	0.36	0
bin	0.38	0
bin	0.4	0
bin	0.42	0
bin	0.44	0
bin	0.46	0
bin	0.48	0
bin	0.5	0
scalar Net60.rte[54].routing drop:count 0
attr interpolationmode none
attr title "dropped packet byte length, count"
attr unit bytes
scalar Net60.rte[54].routing drop:sum 0
attr interpolationmode none
attr title "dropped packet byte length, sum"
attr unit bytes
scalar Net60.rte[54].queue[0] rxBytes:count 0
attr interpolationmode none
attr title "received packet byte length, count"
attr unit bytes
scalar Net60.rte[54].queue[0] rxBytes:sum 0
attr interpolationmode none
attr title "received packet byte length, sum"
attr unit bytes
statistic Net60.rte[54].queue[0] rxBytes:histogram
field count 0
field mean -nan
field stddev -nan
field min -nan
field max -nan
field sum 0
field sqrsum 0
attr interpolationmode none
attr title "received packet byte length, histogram"
attr unit bytes
bin	-inf	0
bin	0	0
bin	1	0
scalar Net60.rte[54].queue[0] txBytes:count 3
attr interpolationmode none
attr title "transmitting packet byte length, count"
attr unit bytes
scalar Net60.rte[54].queue[0] txBytes:sum 98304
attr interpolationmode none
attr title "transmitting packet byte length, sum"
attr unit bytes
statistic Net60.rte[54].queue[0] txBytes:histogram
field count 3
field mean 32768
field stddev 0
field min 32768
field max 32768
field sum 98304
field sqrsum 3221225472
attr interpolationmode none
attr title "transmitting packet byte length, histogram"
attr unit bytes
bin	-inf	0
bin	32767	0
bin	32768	3
bin	32769	0
scalar Net60.rte[54].queue[0] busy:timeavg 0.08837978869661
attr interpolationmode sample-hold
attr title "server busy state, timeavg"
scalar Net60.rte[54].queue[0] qlen:timeavg 0
attr interpolationmode sample-hold
attr title "queue length, timeavg"
scalar Net60.rte[54].queue[0] qlen:max 0
attr interpolationmode sample-hold
attr title "queue length, max"
scalar Net60.rte[54].queue[0] drop:count 0
attr interpolationmode none
attr title "dropped packet byte length, count"
attr unit bytes
scalar Net60.rte[54].queue[0] drop:sum 0
attr interpolationmode none
attr title "dropped packet byte length, sum"
attr unit bytes
scalar Net60.rte[54].queue[1] rxBytes:count 1
attr interpolationmode none
attr title "received packet byte length, count"
attr unit bytes
scalar Net60.rte[54].queue[1] rxBytes:sum 32768
attr interpolationmode none
attr title "received packet byte length, sum"
attr unit bytes
statistic Net60.rte[54].queue[1] rxBytes:histogram
field count 1
field mean 32768
field stddev -nan
field min 32768
field max 32768
field sum 32768
field sqrsum 1073741824
attr interpolationmode none
attr title "received packet byte length, histogram"
attr unit bytes
bin	-inf	0
bin	32767	0
bin	32768	1
bin	32769	0
scalar Net60.rte[54].queue[1] txBytes:count 0
attr interpolationmode none
attr title "transmitting packet byte length, count"
attr unit bytes
scalar Net60.rte[54].queue[1] txBytes:sum 0
attr interpolationmode none
attr title "transmitting packet byte length, sum"
attr unit bytes
statistic Net60.rte[54].queue[1] txBytes:histogram
field count 0
field mean -nan
field stddev -nan
field min -nan
field max -nan
field sum 0
field sqrsum 0
attr interpolationmode none
attr title "transmitting packet byte length, histogram"
attr unit bytes
bin	-inf	0
bin	0	0
bin	1	0
scalar Net60.rte[54].queue[1] busy:timeavg 0
attr interpolationmode sample-hold
attr title "server busy state, timeavg"
scalar Net60.rte[54].queue[1] qlen:timeavg 0
attr interpolationmode sample-hold
attr title "queue length, timeavg"
scalar Net60.rte[54].queue[1] qlen:max 0
attr interpolationmode sample-hold
attr title "queue length, max"
scalar Net60.rte[54].queue[1] drop:count 0
attr interpolationmode none
attr title "dropped packet byte length, count"
attr unit bytes
scalar Net60.rte[54].queue[1] drop:sum 0
attr interpolationmode none
attr title "dropped packet byte length, sum"
attr unit bytes
scalar Net60.rte[55].app hopCount:mean -nan
attr interpolationmode none
attr title "hop count of arrived packets, mean"
scalar Net60.rte[55].app hopCount:max -nan
attr interpolationmode none
attr title "hop count of arrived packets, max"
scalar Net60.rte[55].app endToEndDelay:mean -nan
attr interpolationmode none
attr title "end-to-end delay of arrived packets, mean"
attr unit s
scalar Net60.rte[55].app endToEndDelay:max -nan
attr interpolationmode none
attr title "end-to-end delay of arrived packets, max"
attr unit s
statistic Net60.rte[55].routing outputIf:histogram
field count 2
field mean 0.5
field stddev 0.70710678118655
field min 0
field max 1
field sum 1
field sqrsum 1
attr interpolationmode none
attr title "output interface for each routed packet, histogram"
bin	-inf	0
bin	0	1
bin	1	1
bin	2	0
scalar Net60.rte[55].routing drop:count 0
attr interpolationmode none
attr title "dropped packet byte length, count"
attr unit bytes
scalar Net60.rte[55].routing drop:sum 0
attr interpolationmode none
attr title "dropped packet byte length, sum"
attr unit bytes
scalar Net60.rte[55].queue[0] rxBytes:count 0
attr interpolationmode none
attr title "received packet byte length, count"
attr unit bytes
scalar Net60.rte[55].queue[0] rxBytes:sum 0
attr interpolationmode none
attr title "received packet byte length, sum"
attr unit bytes
statistic Net60.rte[55].queue[0] rxBytes:histogram
field count 0
field mean -nan
field stddev -nan
field min -nan
field max -nan
field sum 0
field sqrsum 0
attr interpolationmode none
attr title "received packet byte length, histogram"
attr unit bytes
bin	-inf	0
bin	0	0
bin	1	0
scalar Net60.rte[55].queue[0] txBytes:count 1
attr interpolationmode none
attr title "transmitting packet byte length, count"
attr unit bytes
scalar Net60.rte[55].queue[0] txBytes:sum 32768
attr interpolationmode none
attr title "transmitting packet byte length, sum"
attr unit bytes
statistic Net60.rte[55].queue[0] txBytes:histogram
field count 1
field mean 32768
field stddev -nan
field min 32768
field max 32768
field sum 32768
field sqrsum 1073741824
attr interpolationmode none
attr title "transmitting packet byte length, histogram"
attr unit bytes
bin	-inf	0
bin	32767	0
bin	32768	1
bin	32769	0
scalar Net60.rte[55].queue[0] busy:timeavg 0.029459929565537
attr interpolationmode sample-hold
attr title "server busy state, timeavg"
scalar Net60.rte[55].queue[0] qlen:timeavg 0
attr interpolationmode sample-hold
attr title "queue length, timeavg"
scalar Net60.rte[55].queue[0] qlen:max 0
attr interpolationmode sample-hold
attr title "queue length, max"
scalar Net60.rte[55].queue[0] drop:count 0
attr interpolationmode none
attr title "dropped packet byte length, count"
attr unit bytes
scalar Net60.rte[55].queue[0] drop:sum 0
attr interpolationmode none
attr title "dropped packet byte length, sum"
attr unit bytes
scalar Net60.rte[55].queue[1] rxBytes:count 0
attr interpolationmode none
attr title "received packet byte length, count"
attr unit bytes
scalar Net60.rte[55].queue[1] rxBytes:sum 0
attr interpolationmode none
attr title "received packet byte length, sum"
attr unit bytes
statistic Net60.rte[55].queue[1] rxBytes:histogram
field count 0
field mean -nan
field stddev -nan
field min -nan
field max -nan
field sum 0
field sqrsum 0
attr interpolationmode none
attr title "received packet byte length, histogram"
attr unit bytes
bin	-inf	0
bin	0	0
bin	1	0
scalar Net60.rte[55].queue[1] txBytes:count 1
attr interpolationmode none
attr title "transmitting packet byte length, count"
attr unit bytes
scalar Net60.rte[55].queue[1] txBytes:sum 32768
attr interpolationmode none
attr title "transmitting packet byte length, sum"
attr unit bytes
statistic Net60.rte[55].queue[1] txBytes:histogram
field count 1
field mean 32768
field stddev -nan
field min 32768
field max 32768
field sum 32768
field sqrsum 1073741824
attr interpolationmode none
attr title "transmitting packet byte length, histogram"
attr unit bytes
bin	-inf	0
bin	32767	0
bin	32768	1
bin	32769	0
scalar Net60.rte[55].queue[1] busy:timeavg 0.029459929565537
attr interpolationmode sample-hold
attr title "server busy state, timeavg"
scalar Net60.rte[55].queue[1] qlen:timeavg 0
attr interpolationmode sample-hold
attr title "queue length, timeavg"
scalar Net60.rte[55].queue[1] qlen:max 0
attr interpolationmode sample-hold
attr title "queue length, max"
scalar Net60.rte[55].queue[1] drop:count 0
attr interpolationmode none
attr title "dropped packet byte length, count"
attr unit bytes
scalar Net60.rte[55].queue[1] drop:sum 0
attr interpolationmode none
attr title "dropped packet byte length, sum"
attr unit bytes
scalar Net60.rte[56].app hopCount:mean -nan
attr interpolationmode none
attr title "hop count of arrived packets, mean"
scalar Net60.rte[56].app hopCount:max -nan
attr interpolationmode none
attr title "hop count of arrived packets, max"
scalar Net60.rte[56].app endToEndDelay:mean -nan
attr interpolationmode none
attr title "end-to-end delay of arrived packets, mean"
attr unit s
scalar Net60.rte[56].app endToEndDelay:max -nan
attr interpolationmode none
attr title "end-to-end delay of arrived packets, max"
attr unit s
statistic Net60.rte[56].routing outputIf:histogram
field count 4
field mean 0
field stddev 0
field min 0
field max 0
field sum 0
field sqrsum 0
attr interpolationmode none
attr title "output interface for each routed packet, histogram"
bin	-inf	0
bin	-0.5	0
bin	-0.48	0
bin	-0.46	0
bin	-0.44	0
bin	-0.42	0
bin	-0.4	0
bin	-0.38	0
bin	-0.36	0
bin	-0.34	0
bin	-0.32	0
bin	-0.3	0
bin	-0.28	0
bin	-0.26	0
bin	-0.24	0
bin	-0.22	0
bin	-0.2	0
bin	-0.18	0
bin	-0.16	0
bin	-0.14	0
bin	-0.12	0
bin	-0.1	0
bin	-0.08	0
bin	-0.06	0
bin	-0.04	0
bin	-0.02	0
bin	0	4
bin	0.02	0
bin	0.04	0
bin	0.06	0
bin	0.08	0
bin	0.1	0
bin	0.12	0
bin	0.14	0
bin	0.16	0
bin	0.18	0
bin	0.2	0
bin	0.22	0
bin	0.24	0
bin	0.26	0
bin	0.28	0
bin	0.3	0
bin	0.32	0
bin	0.34	0
bin	0.36	0
bin	0.38	0
bin	0.4	0
bin	0.42	0
bin	0.44	0
bin	0.46	0
bin	0.48	0
bin	0.5	0
scalar Net60.rte[56].routing drop:count 0
attr interpolationmode none
attr title "dropped packet byte length, count"
attr unit bytes
scalar Net60.rte[56].routing drop:sum 0
attr interpolationmode none
attr title "dropped packet byte length, sum"
attr unit bytes
scalar Net60.rte[56].queue[0] rxBytes:count 0
attr interpolationmode none
attr title "received packet byte length, count"
attr unit bytes
scalar Net60.rte[56].queue[0] rxBytes:sum 0
attr interpolationmode none
attr title "received packet byte length, sum"
attr unit bytes
statistic Net60.rte[56].queue[0] rxBytes:histogram
field count 0
field mean -nan
field stddev -nan
field min -nan
field max -nan
field sum 0
field sqrsum 0
attr interpolationmode none
attr title "received packet byte length, histogram"
attr unit bytes
bin	-inf	0
bin	0	0
bin	1	0
scalar Net60.rte[56].queue[0] txBytes:count 4
attr interpolationmode none
attr title "transmitting packet byte length, count"
attr unit bytes
scalar Net60.rte[56].queue[0] txBytes:sum 131072
attr interpolationmode none
attr title "transmitting packet byte length, sum"
attr unit bytes
statistic Net60.rte[56].queue[0] txBytes:histogram
field count 4
field mean 32768
field stddev 0
field min 32768
field max 32768
field sum 131072
field sqrsum 4294967296
attr interpolationmode none
attr title "transmitting packet byte length, histogram"
attr unit bytes
bin	-inf	0
bin	32767	0
bin	32768	4
bin	32769	0
scalar Net60.rte[56].queue[0] busy:timeavg 0.11783971826215
attr interpolationmode sample-hold
attr title "server busy state, timeavg"
scalar Net60.rte[56].queue[0] qlen:timeavg 0
attr interpolationmode sample-hold
attr title "queue length, timeavg"
scalar Net60.rte[56].queue[0] qlen:max 0
attr interpolationmode sample-hold
attr title "queue length, max"
scalar Net60.rte[56].queue[0] drop:count 0
attr interpolationmode none
attr title "dropped packet byte length, count"
attr unit bytes
scalar Net60.rte[56].queue[0] drop:sum 0
attr interpolationmode none
attr title "dropped packet byte length, sum"
attr unit bytes
scalar Net60.rte[56].queue[1] rxBytes:count 1
attr interpolationmode none
attr title "received packet byte length, count"
attr unit bytes
scalar Net60.rte[56].queue[1] rxBytes:sum 32768
attr interpolationmode none
attr title "received packet byte length, sum"
attr unit bytes
statistic Net60.rte[56].queue[1] rxBytes:histogram
field count 1
field mean 32768
field stddev -nan
field min 32768
field max 32768
field sum 32768
field sqrsum 1073741824
attr interpolationmode none
attr title "received packet byte length, histogram"
attr unit bytes
bin	-inf	0
bin	32767	0
bin	32768	1
bin	32769	0
scalar Net60.rte[56].queue[1] txBytes:count 0
attr interpolationmode none
attr title "transmitting packet byte length, count"
attr unit bytes
scalar Net60.rte[56].queue[1] txBytes:sum 0
attr interpolationmode none
attr title "transmitting packet byte length, sum"
attr unit bytes
statistic Net60.rte[56].queue[1] txBytes:histogram
field count 0
field mean -nan
field stddev -nan
field min -nan
field max -nan
field sum 0
field sqrsum 0
attr interpolationmode none
attr title "transmitting packet byte length, histogram"
attr unit bytes
bin	-inf	0
bin	0	0
bin	1	0
scalar Net60.rte[56].queue[1] busy:timeavg 0
attr interpolationmode sample-hold
attr title "server busy state, timeavg"
scalar Net60.rte[56].queue[1] qlen:timeavg 0
attr interpolationmode sample-hold
attr title "queue length, timeavg"
scalar Net60.rte[56].queue[1] qlen:max 0
attr interpolationmode sample-hold
attr title "queue length, max"
scalar Net60.rte[56].queue[1] drop:count 0
attr interpolationmode none
attr title "dropped packet byte length, count"
attr unit bytes
scalar Net60.rte[56].queue[1] drop:sum 0
attr interpolationmode none
attr title "dropped packet byte length, sum"
attr unit bytes

