version 2
run NetBuilder-0-20190228-11:56:33-4810
attr configname NetBuilder
attr datetime 20190228-11:56:33
attr experiment NetBuilder
attr inifile omnetpp.ini
attr iterationvars ""
attr iterationvarsf ""
attr measurement ""
attr network networks.Dynamic
attr processid 4810
attr repetition 0
attr replication #0
attr resultdir results
attr runnumber 0
attr seedset 0
param **.address "int(replace(fullName(), \"rte\", \"\"))"
param **.destAddresses "\"1 50\""
param **.appType "\"App\""
param **.app.packetLength "4096 bytes"

vector 0 Dynamic.rte50.app endToEndDelay:vector ETV
attr interpolationmode none
attr title "end-to-end delay of arrived packets, vector"
attr unit s
vector 1 Dynamic.rte1.app endToEndDelay:vector ETV
attr interpolationmode none
attr title "end-to-end delay of arrived packets, vector"
attr unit s
0	174	0.319801588399	0.299376
0	220	0.365070853665	0.21384
0	226	0.373061355465	0.299376
0	390	0.528832669093	0.470448
0	541	0.630320137255	0.171072
0	603	0.663088137255	0.344731996413
0	736	0.747233459627	0.128304
0	749	0.755480009016	0.256608
0	819	0.803938851758	0.21384
0	853	0.823607139138	0.470448
0	877	0.836706851758	0.101742430568
0	907	0.856375139138	0.306768454467
0	925	0.869474851758	0.22776567908
0	980	0.899138658467	0.128304
0	984	0.902242851758	0.246869100649
0	1032	0.935010851758	0.379019543131
0	1062	0.957857195042	0.085536
0	1161	1.039470705072	0.299376
0	1256	1.106967874349	0.085536
0	1352	1.176329130234	0.342144
0	1449	1.258452508308	0.21384
0	1512	1.309568357864	0.470448
0	1555	1.342336357864	0.452204728576
0	1721	1.458782347505	0.171072
0	1727	1.459142342849	0.42768
0	1811	1.506900680094	0.085536
0	1871	1.544473480816	0.21384
0	1930	1.577241480816	0.150760537985
0	2082	1.650966544631	0
0	2206	1.701122926388	0.342144
0	2229	1.711591223955	0.128304
0	2281	1.733890926388	0.563988837544
0	2297	1.742306074893	0.128304
0	2305	1.744359223955	0.139119666893
0	2351	1.766658926388	0.259767671952
0	2368	1.777127223955	0.271342965318
0	2406	1.796031877197	0.085536
0	2413	1.799426926388	0.309953816273
0	2437	1.817203867584	0.128304
0	2456	1.828292119776	0
0	2469	1.832194926388	0.576264168341
0	2523	1.864962926388	0.486456887489
0	2529	1.872011048908	0.21384
0	2794	2.031066705184	0.470448
0	2857	2.063834705184	0.230890426107
0	2927	2.106008003704	0.583085781586
0	2977	2.138776003704	0.152333990799
0	3035	2.164745693342	0.085536
0	3041	2.171544003704	0.508604683667
0	3088	2.197513693342	0.157928480336
0	3100	2.204312003704	0.395942739429
0	3151	2.237080003704	0.518882406214
0	3199	2.269848003704	0.229533745762
0	3212	2.274544940295	0
0	3474	2.416055484711	0.128304
0	3536	2.448823484711	0.513489509394
0	3584	2.468528573464	0.21384
0	3610	2.481591484711	0.602627430508
0	3735	2.552582814919	0.171072
0	3848	2.612614605151	0.513216
0	3901	2.645382605151	0.312021022445
0	3965	2.678150605151	0.475936526689
0	4022	2.710918605151	0.450632164573
0	4029	2.712540277287	0.256608
0	4076	2.743686605151	0.46509972104
0	4126	2.776454605151	0.552930183115
0	4263	2.854862085849	0.256608
0	4305	2.880618333299	0.128304
0	4326	2.887630085849	0.08934927784
0	4367	2.917888046023	0.256608
0	4370	2.920398085849	0.527491828775
0	4596	3.049985504105	0.128304
0	4656	3.082753504105	0.050108802327
0	4722	3.115521504105	0.275347773485
0	4775	3.148289504105	0.394528004887
0	4826	3.181057504105	0.55252375925
0	4894	3.220667137846	0.21384
0	4956	3.257380327243	0.128304
0	5021	3.290148327243	0.36798148949
0	5084	3.322916327243	0.135679763265
0	5121	3.351530246978	0.042768
0	5136	3.355684327243	0.615841467272
0	5205	3.397485601623	0.128304
0	5241	3.412083445836	0
0	5277	3.433075631098	0.21384
0	5344	3.465843631098	0.538654522864
0	5400	3.498611631098	0.434089931564
0	5528	3.57067720664	0.384912
0	5578	3.60344520664	0.197250829368
0	5589	3.609407617556	0.171072
0	5747	3.707906096341	0.470448
0	5840	3.758190006675	0.342144
0	5910	3.793884265937	0.342144
0	5952	3.817266328178	0
0	5973	3.828128279928	0.513216
0	6034	3.854084345123	0.128304
0	6046	3.860896279928	0.616773486706
0	6110	3.893664279928	0.593877992277
0	6161	3.926432279928	0.622589670956
0	6351	4.016293869142	0.171072
0	6367	4.025535400888	0.513216
0	6435	4.058303400888	0.532857832756
0	6507	4.092483364644	0.128304
0	6540	4.107227956544	0.171072
0	6602	4.139995956544	0.476002048167
0	6689	4.184468580544	0.513216
0	6696	4.18738667706	0.342144
0	6762	4.217236580544	0.474356455621
0	6798	4.232639400069	0.171072
0	6839	4.250004580544	0.397665906749
0	6986	4.319617926748	0.555984
0	7057	4.352385926748	0.361107317239
0	7086	4.368041340544	0.171072
0	7127	4.385153926748	0.593597711938
0	7254	4.458934656477	0.128304
0	7265	4.467523434715	0.128304
0	7354	4.513227854033	0.299376
0	7359	4.514617322814	0.128304
0	7508	4.581761945621	0.299376
0	7580	4.614529945621	0.501767197363
0	7657	4.647297945621	0.458651368163
0	7841	4.729348897931	0.171072
0	7869	4.741160083036	0.171072
0	7918	4.762116897931	0.239917630724
0	8060	4.823392032228	0.042768
0	8095	4.840431088822	0.085536
0	8260	4.917318113748	0.21384
0	8331	4.950086113748	0.471073874475
0	8407	4.982854113748	0.301648769613
0	8462	5.015622113748	0.467195213853
0	8537	5.048390113748	0.477910769844
0	8612	5.085247497955	0.58168321752
0	8735	5.153548990039	0.513216
0	8804	5.194108718245	0.299376
0	8858	5.226876718245	0.149538456171
0	8915	5.259644718245	0.619268187498
0	8979	5.292412718245	0.308166688664
0	9030	5.325180718245	0.60800200553
0	9079	5.357948718245	0.489504233416
0	9129	5.390716718245	0.146968292817
0	9186	5.423484718245	0.530863205572
0	9235	5.456252718245	0.427729014633
0	9255	5.472952323445	0.042768
0	9283	5.489020718245	0.308355026968
0	9330	5.521788718245	0.591182313083
0	9366	5.542068650363	0.342144
0	9386	5.554556718245	0.621988535511
0	9436	5.587324718245	0.277620523784
0	9610	5.686520486377	0.128304
0	9667	5.719288486377	0.221840231034
0	9895	5.82791359911	0.128304
0	9998	5.872022869276	0.42768
0	10401	6.04791561861	0.299376
0	10469	6.08068361861	0.142206808388
0	10537	6.11345161861	0.605213217975
0	10609	6.14621961861	0.525220532904
0	10671	6.173997832771	0.042768
0	10681	6.17898761861	0.501573191962
0	10736	6.206765832771	0.050922355929
0	10750	6.21175561861	0.531112972323
0	10811	6.24452361861	0.563752209606
0	10847	6.260310282477	0.128304
0	10874	6.27729161861	0.403913824721
0	10910	6.293078282477	0.372579681356
0	10941	6.31005961861	0.50263790915
0	11102	6.38463054602	0.21384
0	11173	6.41739854602	0.558115751735
0	11179	6.424571065152	0.256608
0	11317	6.493289794497	0.256608
0	11372	6.526057794497	0.555838758636
0	11401	6.540116232161	0.171072
0	11446	6.563611118628	0.256608
0	11466	6.572884232161	0.155764340063
0	11518	6.596379118628	0.143366066516
0	11538	6.609864127556	0.299376
0	11579	6.629147118628	0.30512837627
0	11662	6.678424965667	0.085536
0	11958	6.870205827276	0.085536
0	12161	6.999480723891	0.171072
0	12227	7.032248723891	0.582130709201
0	12252	7.044049706272	0.042768
0	12299	7.065016723891	0.115411505551
0	12425	7.139878397938	0.598752
0	12609	7.234555989869	0.085536
0	12675	7.264547589394	0.389731524447
0	12754	7.302251685444	0.042768
0	12802	7.323608774646	0.555984
0	12871	7.356376774646	0.358551929175
0	12912	7.378537160161	0.171072
0	12934	7.389144774646	0.191459718769
0	12993	7.421912774646	0.591234550768
0	13061	7.462051465878	0.042768
0	13170	7.513930633128	0.085536
0	13209	7.534246005412	0.555984
0	13283	7.573163845698	0.384912
0	13329	7.598641201946	0.256608
0	13361	7.61145264347	0.384912
0	13403	7.640586150961	0.299376
0	13419	7.646222246991	0.384912
0	13461	7.678990246991	0.39575261931
0	13503	7.711758246991	0.472141552035
0	13560	7.744526246991	0.498934009186
0	13663	7.802456526278	0.171072
0	13811	7.894755980328	0.21384
0	13969	7.991858488937	0.256608
0	13991	8.00007039953	0.21384
0	14046	8.03283839953	0.273260940509
0	14115	8.06560639953	0.466511293107
0	14181	8.09837439953	0.133734789298
0	14187	8.099956303365	0.342144
0	14244	8.13114239953	0.567780820343
0	14297	8.16391039953	0.636087495676
0	14366	8.19667839953	0.613230523613
0	14436	8.22944639953	0.720371095284
0	14513	8.26221439953	0.343896943181
0	14534	8.275070541188	0.128304
0	14571	8.29099698405	0.085536
0	14584	8.29498239953	0.445615220153
0	14690	8.344219157983	0
0	14693	8.346108012427	0.171072
0	14754	8.378876012427	0.498146779925
0	14878	8.441713290237	0.384912
0	14948	8.474481290237	0.189643504232
0	15008	8.502371064873	0.256608
0	15014	8.507249290237	0.267380017408
0	15073	8.540017290237	0.532052756547
0	15130	8.572785290237	0.447837518211
0	15189	8.605553290237	0.595751176823
0	15225	8.626600546324	0.128304
0	15250	8.638321290237	0.211145601377
0	15301	8.671089290237	0.587804124323
0	15309	8.679251770995	0.256608
0	15357	8.703857290237	0.663972381288
0	15371	8.712019770995	0.259996052718
0	15424	8.736625290237	0.362885370535
0	15479	8.769393290237	0.241712077644
0	15536	8.802161290237	0.16643434884
0	15589	8.834929290237	0.766421698364
0	15661	8.867697290237	0.63255171269
0	15725	8.900465290237	0.462325889008
0	15763	8.920273387435	0.042768
0	15790	8.933233290237	0.672826590889
0	15833	8.953041387435	0.286935474495
0	15864	8.966001290237	0.474257232714
0	15927	8.998769290237	0.800983142035
0	15990	9.031537290237	0.723621791173
0	16040	9.055471893153	0.171072
0	16056	9.064305290237	0.500503341169
0	16115	9.097073290237	0.202676323388
0	16118	9.098829294968	0.128304
0	16164	9.129841290237	0.260062702414
0	16215	9.162609290237	0.512018121921
0	16260	9.195377290237	0.233683356184
0	16533	9.368501278455	0.405019362612
0	16646	9.429512027555	0.128304
0	16717	9.466498133979	0.256608
0	16773	9.499661895454	0.171072
0	16819	9.528265437864	0.171072
0	16912	9.581030732181	0.342144
0	16939	9.5951642934	0.299376
0	16966	9.613798732181	0.217238565347
0	16998	9.628183678926	0.42768
0	17022	9.643722951617	0.042768
0	17144	9.710787635064	0.395669412767
0	17212	9.743555635064	0.387622912416
0	17275	9.776323635064	0.516704222584
0	17485	9.871794894737	0.470448
0	17563	9.904562894737	0.331467072407
0	17635	9.937330894737	0.201564918002
0	17696	9.965381280089	0.085536
0	17701	9.970098894737	0.329851815207
0	17720	9.975600758973	0.256608
0	17769	10.002866894737	0.300396727374
0	17832	10.035634894737	0.272945427254
0	17891	10.068402894737	0.376795082918
0	17935	10.100937986816	0.128304
0	17939	10.101170894737	0.104605408657
0	17985	10.133938894737	0.084787567175
0	18028	10.166706894737	0.598382377681
0	18061	10.199474894737	0.575542512017
0	18093	10.232242894737	0.413061358622
0	18103	10.237546846507	0.128304
0	18136	10.265010894737	0.729222077951
0	18199	10.312377258006	0.342144
0	18299	10.397482450376	0.128304
0	18345	10.434766715084	0.171072
0	18388	10.461210904992	0.42768
0	18428	10.494758433003	0.470448
0	18468	10.527174038521	0.21384
0	18542	10.574279876009	0.21384
0	18657	10.653247296438	0.128304
0	18663	10.656639490516	0.384912
0	18766	10.71319501532	0.256608
0	18835	10.750737224637	0.042768
0	18891	10.785353072678	0.085536
0	18938	10.808774062321	0.256608
0	18975	10.828470323234	0.299376
0	19007	10.845255502892	0.598752
0	19032	10.861238323234	0.102862402233
0	19145	10.917384685579	0.299376
0	19412	11.037239487717	0.515460070077
0	19425	11.045875596459	0.21384
0	19474	11.070007487717	0.147189078449
0	19536	11.102775487717	0.621968680319
0	19646	11.157933162072	0.555984
0	19715	11.190701162072	0.069311522987
0	19770	11.223469162072	0.52175638472
0	19776	11.223880264065	0.042768
0	19828	11.256237162072	0.30528810391
0	19849	11.266511429022	0.171072
0	19889	11.289005162072	0.293296004306
0	19941	11.321773162072	0.402047602166
0	20062	11.403108823636	0.513216
0	20110	11.435876823636	0.520615009028
0	20166	11.468644823636	0.130215685236
0	20217	11.501412823636	0.227790619068
0	20272	11.534180823636	0.513261111479
0	20313	11.566948823636	0.446379690024
0	20316	11.567555649057	0.042768
0	20367	11.599716823636	0.400422035194
0	20426	11.632484823636	0.708919608389
0	20478	11.665252823636	0.266020269724
0	20535	11.702294001292	0.513216
0	20551	11.707160465266	0.085536
0	20633	11.750950615753	0.384912
0	20818	11.847247319274	0.299376
0	20886	11.877518549164	0.21384
0	20985	11.926853830437	0.256608
0	21148	11.993843111824	0.299376
0	21244	12.035405230622	0.299376
0	21340	12.071179173204	0.598752
0	21385	12.09336010199	0.171072
0	21434	12.106871428171	0.128304
0	21508	12.139639428171	0.188224010819
0	21578	12.172407428171	0.374186377767
0	21655	12.205175428171	0.374464249402
0	21721	12.237943428171	0.516352673856
0	21782	12.270711428171	0.490819590008
0	21836	12.296908760767	0.085536
0	21879	12.319054027454	0.342144
0	21892	12.328472972342	0.513216
0	21946	12.361240972342	0.564363676898
0	21994	12.389576392047	0.342144
0	21998	12.394008972342	0.403572495984
0	22053	12.426776972342	0.401840767238
0	22071	12.439095388149	0.256608
0	22526	12.700637074536	0.598752
0	22579	12.733405074536	0.400171318168
0	22606	12.741952865132	0.042768
0	22651	12.766173074536	0.128431561168
0	22792	12.835643636433	0.42768
0	22856	12.862425794203	0.256608
0	22869	12.868411636433	0.307662644986
0	22935	12.901179636433	0.398184846
0	23001	12.933947636433	0.536601938629
0	23082	12.966715636433	0.543569603561
0	23157	12.999483636433	0.1082893964
0	23221	13.032251636433	0.437507888744
0	23284	13.065019636433	0.652813947191
0	23348	13.097787636433	0.426527534308
0	23413	13.130555636433	0.396841916707
0	23470	13.163323636433	0.362910768782
0	23514	13.182178779836	0.085536
0	23537	13.196091636433	0.3728946757
0	23602	13.228859636433	0.580944476095
0	23668	13.261627636433	0.412561262822
0	23816	13.338640091545	0.128304
0	23852	13.355217394794	0.42768
0	24055	13.457717131031	0.513216
0	24119	13.48910143368	0.319252306557
0	24128	13.490485131031	0.315614675757
0	24255	13.553337382965	0.598752
0	24388	13.617797473106	0.384912
0	24452	13.650565473106	0.480000764712
0	24550	13.683333473106	0.597672469465
0	24599	13.703389971031	0.042768
0	24639	13.719506089401	0.256608
0	24725	13.752274089401	0.365929332669
0	24910	13.832544662719	0.513216
0	24992	13.87289978638	0.42768
0	25068	13.90566778638	0.320744015931
0	25141	13.93843578638	0.36879435313
0	25198	13.97120378638	0.243245345288
0	25252	14.00397178638	0.552001343623
0	25303	14.03673978638	0.151680942627
0	25356	14.06950778638	0.686210383666
0	25410	14.10227578638	0.220219957326
0	25464	14.13504378638	0.296556088249
0	25509	14.165073204095	0.128304
0	25513	14.16781178638	0.130269874519
0	25559	14.20057978638	0.672814125807
0	25606	14.23334778638	0.573943352071
0	25645	14.263273011314	0.128304
0	25649	14.26611578638	0.483905607114
0	25669	14.286992847915	0.128304
0	25682	14.29888378638	0.76758944832
0	25711	14.33165178638	0.678537226777
0	25736	14.36441978638	0.43097616597
0	25744	14.369451472946	0.042768
0	25765	14.39718778638	0.676885686241
0	25798	14.42995578638	0.813790703466
0	25827	14.46272378638	0.812266194168
0	25864	14.49549178638	0.82781509094
0	25912	14.52825978638	0.731747177935
0	25963	14.56102778638	0.389654390659
0	26013	14.59379578638	0.589854467079
0	26045	14.624537337286	0.042768
0	26056	14.62656378638	0.088133543313
0	26106	14.65933178638	0.54229787039
0	26161	14.69209978638	0.191075231612
0	26205	14.72486778638	0.307399209716
0	26253	14.75763578638	0.130349901075
0	26516	14.963740139393	0.085536
0	26603	15.036475849983	0
0	26705	15.096282390149	0.470448
0	26752	15.129050390149	0.242070474507
0	26819	15.161818390149	0.404951693242
0	26899	15.194586390149	0.551616066243
0	26961	15.227354390149	0.477589666357
0	27064	15.280061075006	0.299376
0	27101	15.304748132125	0.128304
0	27124	15.312829075006	0.370460544473
0	27282	15.401615510005	0.513216
0	27505	15.524173175586	0.256608
0	27564	15.54910425299	0.085536
0	27597	15.568842940672	0.555984
0	27614	15.576969242008	0
0	27671	15.601610940672	0.541333415267
0	27737	15.634378940672	0.58667395338
0	27740	15.635608442938	0.085536
0	27797	15.667146940672	0.473129796316
0	27863	15.699914940672	0.28182244413
0	27924	15.732682940672	0.696058973444
0	28002	15.765450940672	0.095529018958
0	28059	15.798218940672	0.663949301496
0	28062	15.798273240421	0.128304
0	28116	15.830986940672	0.481999358367
0	28194	15.864339885577	0.513216
0	28338	15.930782150418	0.342144
0	28405	15.963550150418	0.110383263957
0	28464	15.996318150418	0.495496970501
0	28560	16.047791928094	0.128304
0	28614	16.080559928094	0.133620402328
0	28716	16.132101773724	0.342144
0	28796	16.177696716294	0.342144
0	28850	16.207022843722	0.342144
0	28853	16.210464716294	0.092920092662
0	28922	16.243232716294	0.567000129081
0	28986	16.276000716294	0.527328222592
0	29008	16.289442492606	0.128304
0	29046	16.308768716294	0.604390607672
0	29049	16.309341210563	0.085536
0	29097	16.341536716294	0.222422516001
0	29112	16.350883981996	0.256608
0	29159	16.374304716294	0.498709398021
0	29206	16.407072716294	0.338576886146
0	29209	16.409425578602	0.171072
0	29256	16.449615862347	0.21384
0	29265	16.454898660366	0.128304
0	29285	16.472352581883	0.342144
0	29508	16.646891636294	0.384912
0	29652	16.730070639117	0.171072
0	29715	16.762838639117	0.400572362354
0	29763	16.795606639117	0.101634917416
0	29807	16.828374639117	0.428726883107
0	29853	16.861142639117	0.189643251628
0	29910	16.893910639117	0.272312226471
0	29959	16.926678639117	0.184544040804
0	30003	16.959446639117	0.472287716522
0	30044	16.992214639117	0.624768534215
0	30101	17.024982639117	0.51414338287
0	30136	17.057750639117	0.345486334798
0	30294	17.175127228268	0.342144
0	30334	17.207895228268	0.235225846011
0	30375	17.240663228268	0.455770786717
0	30488	17.324489975612	0.085536
0	30536	17.351763690973	0.27420374618
0	30676	17.430689357769	0.342144
0	30728	17.463457357769	0.514963361651
0	30798	17.496225357769	0.354202229252
0	30866	17.528993357769	0.193361664099
0	30934	17.561761357769	0.652374780459
0	31090	17.647669127405	0.21384
0	31149	17.680437127405	0.04308585565
0	31267	17.738855885878	0.470448
0	31309	17.75681507516	0.128304
0	31340	17.771623885878	0.227993201867
0	31416	17.804391885878	0.551421585581
0	31497	17.837159885878	0.096414785793
0	31543	17.86130092427	0.21384
0	31564	17.869927885878	0.395717934734
0	31612	17.89406892427	0.237664123866
0	31625	17.902695885878	0.228897360191
0	31693	17.935463885878	0.469247944297
0	31784	17.984524696596	0.513216
0	31979	18.084687263296	0.555984
0	32061	18.13108802878	0.42768
0	32103	18.152378228516	0.085536
0	32192	18.205665638318	0.171072
0	32259	18.243170762829	0.128304
0	32322	18.275938762829	0.485525136572
1	317	0.476073026124	0.384912
1	364	0.508841026124	0.244253075001
1	511	0.613432163722	0.128304
1	572	0.646200163722	0.409761110306
1	630	0.678968163722	0.256050797105
1	681	0.711736163722	0.557006483222
1	729	0.744504163722	0.618629754284
1	779	0.777272163722	0.184508891844
1	810	0.795874504566	0
1	826	0.810040163722	0.258991677052
1	889	0.842808163722	0.267288966839
1	937	0.875576163722	0.391974058774
1	991	0.908344163722	0.496766167479
1	1041	0.941112163722	0.15391102374
1	1044	0.941328388484	0.042768
1	1089	0.973880163722	0.571207377982
1	1118	1.006648163722	0.357201815471
1	1158	1.039416163722	0.385533596501
1	1201	1.072184163722	0.319510050409
1	1249	1.104952163722	0.181729032251
1	1303	1.137720163722	0.454952385074
1	1335	1.170488163722	0.193481737329
1	1377	1.203256163722	0.322525285098
1	1416	1.236024163722	0.248003736917
1	1462	1.268792163722	0.429359310822
1	1502	1.301560163722	0.175986593684
1	1539	1.334328163722	0.296168863058
1	1582	1.367096163722	0.280982999969
1	1629	1.399864163722	0.563595846616
1	1960	1.592159417367	0.513216
1	2032	1.624927417367	0.278743413663
1	2103	1.657695417367	0.570440068863
1	2176	1.690463417367	0.238391810678
1	2254	1.723231417367	0.419555486584
1	2329	1.755999417367	0.433026323428
1	2394	1.788767417367	0.652828475657
1	2446	1.821535417367	0.241656109056
1	2504	1.854303417367	0.674530036787
1	2556	1.887071417367	0.318175299744
1	2603	1.919839417367	0.644611715143
1	2666	1.952607417367	0.093003205292
1	2714	1.985375417367	0.203571591173
1	2767	2.018143417367	0.139843734871
1	2831	2.050911417367	0.378700217042
1	2898	2.083679417367	0.24996303899
1	2945	2.116447417367	0.599911443377
1	3004	2.149215417367	0.540866017602
1	3057	2.181983417367	0.230438081483
1	3112	2.214751417367	0.220644775348
1	3166	2.247519417367	0.460031753928
1	3359	2.353925650791	0.513216
1	3443	2.398286657299	0.384912
1	3502	2.431054657299	0.128433501739
1	3565	2.463822657299	0.141325987961
1	3630	2.496590657299	0.59292459116
1	3700	2.529358657299	0.458660083858
1	3754	2.562126657299	0.657126290616
1	3811	2.594894657299	0.093997630825
1	3876	2.627662657299	0.586770441387
1	3936	2.660430657299	0.310474489442
1	3991	2.693198657299	0.755841485971
1	4045	2.725966657299	0.268140419744
1	4110	2.758734657299	0.188887178935
1	4155	2.791502657299	0.195657433742
1	4204	2.824270657299	0.612500759627
1	4266	2.857038657299	0.581199825938
1	4329	2.889806657299	0.581470412903
1	4379	2.922574657299	0.128726172338
1	4434	2.955342657299	0.486077389764
1	4492	2.988110657299	0.422210017482
1	4555	3.020878657299	0.568222348501
1	4612	3.053646657299	0.586553376149
1	4666	3.086414657299	0.356509260388
1	4726	3.119182657299	0.208945387697
1	4787	3.151950657299	0.566510965233
1	4900	3.223027774822	0.513216
1	4953	3.255795774822	0.188924924558
1	5018	3.288563774822	0.449054935209
1	5078	3.321331774822	0.473766508417
1	5126	3.354099774822	0.51329499096
1	5249	3.414474368892	0.42768
1	5317	3.450404477987	0.555984
1	5373	3.483172477987	0.097742323872
1	5422	3.515940477987	0.57766875754
1	5480	3.548708477987	0.4338299899
1	5544	3.581476477987	0.190950888813
1	5600	3.614244477987	0.136992911726
1	5645	3.647012477987	0.496842549311
1	5774	3.721881360859	0.342144
1	5827	3.754649360859	0.431489332198
1	5891	3.787417360859	0.240549154236
1	5968	3.824849724578	0.342144
1	6040	3.857617724578	0.183467585695
1	6289	3.992025123718	0.470448
1	6405	4.046271744488	0.171072
1	6475	4.079039744488	0.28522896964
1	6608	4.141714673795	0.366374761994
1	6692	4.184850887398	0.513216
1	6765	4.217618887398	0.515012805706
1	6903	4.280537834066	0.470448
1	6971	4.313305834066	0.085739377114
1	7049	4.346073834066	0.198342670924
1	7188	4.423753916969	0.555984
1	7247	4.456521916969	0.536542972987
1	7332	4.500010916114	0.513216
1	7399	4.532778916114	0.496818916289
1	7468	4.565546916114	0.524036110093
1	7536	4.598314916114	0.144587418159
1	7614	4.631082916114	0.403611976549
1	7690	4.663850916114	0.622167161075
1	7768	4.696618916114	0.443361016802
1	7844	4.729386916114	0.484257507321
1	7921	4.762154916114	0.137507509142
1	7996	4.794922916114	0.522351406891
1	8014	4.802959723047	0.042768
1	8067	4.827690916114	0.740452838251
1	8136	4.860458916114	0.714825344071
1	8204	4.893226916114	0.265154655393
1	8274	4.925994916114	0.701873666101
1	8345	4.958762916114	0.674542522648
1	8418	4.991530916114	0.543089464517
1	8488	5.024298916114	0.253899491057
1	8553	5.057066916114	0.670328645556
1	8620	5.089834916114	0.562113494798
1	8685	5.122602916114	0.680831588395
1	8739	5.155370916114	0.607707938033
1	8789	5.188138916114	0.226191964106
1	8846	5.220906916114	0.656780654048
1	8910	5.253674916114	0.772379266304
1	8969	5.286442916114	0.464761855024
1	9015	5.319210916114	0.737554535181
1	9067	5.351978916114	0.620975593024
1	9124	5.384746916114	0.797169179875
1	9180	5.417514916114	0.606941365829
1	9225	5.450282916114	0.603691597544
1	9272	5.483050916114	0.368560688118
1	9325	5.515818916114	0.484473615478
1	9374	5.548586916114	0.279634392253
1	9419	5.581354916114	0.60240939116
1	9473	5.614122916114	0.205036061509
1	9591	5.678476184391	0
1	9673	5.72097798392	0.342144
1	9740	5.75374598392	0.472820099338
1	9825	5.795635959715	0.555984
1	9925	5.838535595009	0.21384
1	9994	5.871303595009	0.28805698872
1	10074	5.904071595009	0.417237849262
1	10152	5.936839595009	0.362114241736
1	10228	5.969607595009	0.46597934708
1	10295	6.002375595009	0.68269647312
1	10372	6.035143595009	0.27967193139
1	10443	6.067911595009	0.344915413776
1	10510	6.100679595009	0.177291511362
1	10582	6.133447595009	0.566639176241
1	10646	6.166215595009	0.637818801941
1	10715	6.198983595009	0.689418620559
1	10782	6.231751595009	0.503080853218
1	10851	6.264519595009	0.67083122113
1	10916	6.297287595009	0.526292321466
1	10986	6.330055595009	0.711138838585
1	11055	6.362823595009	0.602480879007
1	11120	6.395591595009	0.317168931772
1	11192	6.428359595009	0.632164652147
1	11258	6.461127595009	0.340972221571
1	11320	6.493895595009	0.221051450295
1	11375	6.526663595009	0.238051543092
1	11437	6.559431595009	0.626636965282
1	11473	6.575529198497	0
1	11508	6.592199595009	0.573748947486
1	11568	6.624967595009	0.141059414084
1	11628	6.657735595009	0.560656431449
1	11678	6.690503595009	0.585509084943
1	11730	6.723271595009	0.811236733256
1	11777	6.756039595009	0.626211877197
1	11826	6.788807595009	0.373740224933
1	11878	6.821575595009	0.353927241738
1	11895	6.829440923294	0
1	11936	6.854343595009	0.658957790835
1	11983	6.887111595009	0.356682583954
1	12033	6.919879595009	0.289391038934
1	12083	6.952647595009	0.672040026685
1	12134	6.985415595009	0.634704323907
1	12194	7.018183595009	0.497356500482
1	12237	7.037144209506	0
1	12261	7.050951595009	0.711439174012
1	12325	7.083719595009	0.481056587043
1	12386	7.116487595009	0.524743965909
1	12446	7.149255595009	0.666201736841
1	12500	7.182023595009	0.506313176128
1	12567	7.214791595009	0.608409324701
1	12645	7.247559595009	0.679568704197
1	12713	7.280327595009	0.734772238288
1	12778	7.313095595009	0.594532005615
1	12851	7.345863595009	0.65446323269
1	12915	7.378631595009	0.647677457232
1	12977	7.411399595009	0.248313430746
1	13032	7.444167595009	0.552670811994
1	13095	7.476935595009	0.390499391288
1	13154	7.509703595009	0.478198341475
1	13220	7.542471595009	0.5725690029
1	13290	7.575239595009	0.538264373523
1	13354	7.608007595009	0.298043555123
1	13406	7.640775595009	0.605603325771
1	13448	7.673543595009	0.610291766968
1	13496	7.706311595009	0.274163479978
1	13536	7.725509921459	0.042768
1	13554	7.739079595009	0.238975678097
1	13612	7.771847595009	0.705610351214
1	13670	7.804615595009	0.606736229773
1	13718	7.837383595009	0.366965444104
1	13740	7.850297443818	0.042768
1	13772	7.870151595009	0.40232659894
1	13821	7.902919595009	0.422278672618
1	13924	7.962357632673	0.21384
1	13980	7.995125632673	0.520173226759
1	14358	8.186854546728	0.513216
1	14422	8.219622546728	0.270627824753
1	14488	8.252390546728	0.536429406839
1	14666	8.334991523136	0.555984
1	14729	8.367780623681	0.128304
1	14797	8.400548623681	0.489732792205
1	14865	8.437725320435	0.299376
1	14940	8.470493320435	0.473695846603
1	15099	8.550950677566	0.513216
1	15154	8.583718677566	0.045758012777
1	15362	8.708644742976	0.171072
1	15602	8.839972406178	0.128304
1	15673	8.872740406178	0.543811997607
1	15734	8.905508406178	0.595371138409
1	15801	8.938276406178	0.252352139066
1	15881	8.971044406178	0.421072425419
1	15935	9.003812406178	0.157497236755
1	16003	9.036580406178	0.363948539193
1	16071	9.069348406178	0.613634141725
1	16129	9.102116406178	0.279776033667
1	16171	9.134884406178	0.166467197175
1	16221	9.167652406178	0.483988265199
1	16269	9.200420406178	0.341338905002
1	16314	9.233188406178	0.364717065487
1	16360	9.265956406178	0.198728341656
1	16408	9.298724406178	0.610700314784
1	16461	9.331492406178	0.57784061512
1	16523	9.364260406178	0.303941418691
1	16584	9.397028406178	0.531743127723
1	16649	9.429796406178	0.566969804609
1	16707	9.462564406178	0.239871585264
1	16761	9.495332406178	0.656597909998
1	16812	9.528100406178	0.519339442154
1	16869	9.560868406178	0.417186721012
1	16936	9.593636406178	0.37091616392
1	16995	9.626404406178	0.703305876314
1	17055	9.659172406178	0.300625209695
1	17072	9.671275605449	0
1	17109	9.691940406178	0.546879272674
1	17161	9.724708406178	0.624344994602
1	17236	9.757476406178	0.464368771114
1	17312	9.790244406178	0.28442233493
1	17381	9.823012406178	0.338758624712
1	17575	9.906383344579	0.42768
1	17639	9.939151344579	0.517533350841
1	17707	9.971919344579	0.39827740229
1	17773	10.004687344579	0.260056713881
1	17838	10.037455344579	0.185038382038
1	17898	10.070223344579	0.320474520465
1	17945	10.102991344579	0.528987257182
1	17991	10.135759344579	0.580346654314
1	18034	10.168527344579	0.305373798273
1	18067	10.201295344579	0.371501042936
1	18099	10.234063344579	0.422764446008
1	18142	10.266831344579	0.538267212253
1	18181	10.299599344579	0.606256874207
1	18224	10.332367344579	0.524849551144
1	18262	10.365135344579	0.105954913857
1	18302	10.397903344579	0.219503359324
1	18340	10.430671344579	0.565576278963
1	18539	10.573879188786	0.171072
1	18594	10.611309421974	0.256608
1	18731	10.698126254313	0.256608
1	18798	10.730894254313	0.282406766596
1	18860	10.763662254313	0.47685664093
1	18919	10.796430254313	0.54151165062
1	19075	10.880905625075	0.299376
1	19173	10.929843527109	0.384912
1	19251	10.962611527109	0.280868181317
1	19321	10.995379527109	0.124499316503
1	19385	11.028147527109	0.331077692273
1	19447	11.060915527109	0.429967175685
1	19516	11.093683527109	0.300532101716
1	19547	11.105755860535	0.042768
1	19587	11.126451527109	0.459303407095
1	19649	11.159219527109	0.139322494552
1	19718	11.191987527109	0.411763542236
1	19779	11.224755527109	0.527533839864
1	19832	11.257523527109	0.437665459815
1	19892	11.290291527109	0.43174421223
1	19947	11.323059527109	0.467485298599
1	19989	11.355827527109	0.10988931377
1	20033	11.388595527109	0.527242272755
1	20091	11.421363527109	0.544430780621
1	20145	11.454131527109	0.133796483319
1	20190	11.486899527109	0.549346602355
1	20233	11.519667527109	0.528450878878
1	20291	11.552435527109	0.228049122116
1	20353	11.585203527109	0.146652288283
1	20393	11.617971527109	0.095162077873
1	20576	11.719609877519	0.470448
1	20638	11.752377877519	0.314647043713
1	20695	11.787247452909	0.299376
1	20759	11.820015452909	0.241774298491
1	20830	11.852783452909	0.206241341296
1	20903	11.885551452909	0.304649757483
1	20960	11.918319452909	0.239196687711
1	20989	11.929596325291	0
1	21041	11.951087452909	0.180802148505
1	21118	11.983855452909	0.619938873542
1	21189	12.016623452909	0.591946688343
1	21274	12.049391452909	0.267486655691
1	21360	12.082159452909	0.269113722241
1	21453	12.114927452909	0.368783546662
1	21524	12.147695452909	0.528827709562
1	21593	12.180463452909	0.596684136527
1	21673	12.213231452909	0.289332806532
1	21743	12.245999452909	0.392661101949
1	21807	12.278767452909	0.559808604415
1	21863	12.311535452909	0.334855148625
1	21924	12.344303452909	0.532702711853
1	21975	12.377071452909	0.384513785581
1	22028	12.409839452909	0.519026339241
1	22078	12.442607452909	0.495612136492
1	22125	12.475375452909	0.550893747516
1	22251	12.552834895127	0.513216
1	22303	12.585602895127	0.517309834942
1	22361	12.618370895127	0.173426559755
1	22426	12.651138895127	0.606666439361
1	22484	12.683906895127	0.351249644654
1	22544	12.716674895127	0.562249702897
1	22613	12.749442895127	0.559952393778
1	22686	12.782210895127	0.584800202615
1	22748	12.814978895127	0.310803764524
1	22862	12.865074362686	0.299376
1	22931	12.897842362686	0.142142322679
1	22998	12.930610362686	0.3324044706
1	23076	12.963378362686	0.397015563776
1	23144	12.996146362686	0.611461138114
1	23209	13.028914362686	0.044420576114
1	23273	13.061682362686	0.411436066261
1	23340	13.094450362686	0.309427507145
1	23440	13.1427366684	0.128304
1	23506	13.179245749804	0.42768
1	23568	13.212013749804	0.534233670493
1	23632	13.244781749804	0.338728606597
1	23702	13.277549749804	0.41813584486
1	23780	13.319029654135	0.555984
1	23841	13.351797654135	0.191006871444
1	23912	13.384565654135	0.399792886534
1	23970	13.417333654135	0.504107709772
1	24035	13.450101654135	0.200779411482
1	24105	13.482869654135	0.221647058399
1	24185	13.515637654135	0.643095209244
1	24243	13.548405654135	0.535666987196
1	24312	13.581173654135	0.346221415186
1	24369	13.613941654135	0.432577838595
1	24630	13.717832676088	0.42768
1	24714	13.750600676088	0.117278987806
1	24787	13.783368676088	0.559920559491
1	24861	13.815745152187	0
1	24864	13.816136676088	0.530875242408
1	24943	13.848904676088	0.421341986442
1	25016	13.881672676088	0.138886815479
1	25088	13.914440676088	0.545870886448
1	25156	13.947208676088	0.49577835313
1	25216	13.979976676088	0.389723690559
1	25281	14.021427335126	0.555984
1	25340	14.054195335126	0.421509934008
1	25472	14.139004985529	0.372286814801
1	25523	14.171772985529	0.517851330983
1	25570	14.204540985529	0.521449840888
1	25656	14.275003626509	0.256608
1	25692	14.307771626509	0.1133292895
1	25838	14.468118286847	0.128304
1	26062	14.628222899949	0.555984
1	26142	14.679060782198	0.21384
1	26188	14.711828782198	0.284940798975
1	26233	14.744596782198	0.201112300415
1	26272	14.777364782198	0.309380469964
1	26326	14.824969763018	0.299376
1	26383	14.869613627865	0.470448
1	26425	14.902381627865	0.261495704629
1	26478	14.935552782875	0.342144
1	26526	14.968320782875	0.141171025166
1	26559	15.001088782875	0.333922096042
1	26600	15.033856782875	0.603355640219
1	26660	15.066624782875	0.573298608222
1	26716	15.099392782875	0.599060017656
1	26749	15.128353957482	0.042768
1	26761	15.132160782875	0.212105427285
1	27055	15.278465219674	0.128304
1	27114	15.311233219674	0.068047408924
1	27166	15.344001219674	0.550051995349
1	27225	15.376769219674	0.238286840333
1	27289	15.409537219674	0.15635053181
1	27361	15.442305219674	0.3904836525
1	27487	15.515949545749	0.128304
1	27557	15.548717545749	0.46961792868
1	27628	15.581485545749	0.258505408397
1	27700	15.614253545749	0.474206503509
1	27763	15.647021545749	0.450334954245
1	27829	15.679789545749	0.528400383579
1	27886	15.712557545749	0.185479339021
1	27946	15.745325545749	0.331829752924
1	28017	15.778093545749	0.648149233865
1	28092	15.810861545749	0.659550327108
1	28157	15.843629545749	0.092268752163
1	28225	15.876397545749	0.636860750482
1	28283	15.909165545749	0.056900871898
1	28426	15.973182334746	0.555984
1	28488	16.005950334746	0.229776127438
1	28542	16.038718334746	0.275691803077
1	28600	16.071486334746	0.537436594085
1	28663	16.104254334746	0.499669129287
1	28728	16.137022334746	0.558324328757
1	28781	16.169790334746	0.62996901501
1	28841	16.202558334746	0.331104891948
1	28908	16.235883556301	0.555984
1	28977	16.268651556301	0.270688952287
1	29030	16.301419556301	0.463559068856
1	29088	16.334187556301	0.599816994168
1	29144	16.366955556301	0.192874392519
1	29188	16.399723556301	0.476761388785
1	29232	16.432491556301	0.596418782274
1	29274	16.465259556301	0.282260377502
1	29319	16.498027556301	0.27083523886
1	29426	16.592583784182	0.128304
1	29499	16.641899034004	0.171072
1	29595	16.69560403928	0.513216
1	29697	16.752615840488	0.513216
1	29744	16.785383840488	0.521920279248
1	29907	16.893270715073	0.470448
1	29976	16.947816484126	0.342144
1	30053	16.999962931151	0.384912
1	30125	17.04704611146	0.21384
1	30166	17.07981411146	0.444652459352
1	30208	17.11258211146	0.547466063632
1	30251	17.145377482608	0.470448
1	30297	17.178145482608	0.218979885874
1	30347	17.217483387489	0.56499371903
1	30627	17.407964200113	0.470448
1	30789	17.491930500265	0.171072
1	30852	17.524698500265	0.110742551585
1	30919	17.557466500265	0.537846809292
1	30974	17.590234500265	0.137573841055
1	31038	17.623002500265	0.541424465323
1	31104	17.655770500265	0.524239850714
1	31170	17.688538500265	0.114348378756
1	31233	17.721306500265	0.294466451606
1	31305	17.754074500265	0.500224563763
1	31382	17.786842500265	0.591603460899
1	31450	17.819610500265	0.465598529576
1	31519	17.852378500265	0.556076004589
1	31596	17.885146500265	0.631570093145
1	31660	17.917914500265	0.490180231509
1	31719	17.950682500265	0.605068063075
1	31793	17.987787803762	0.21384
1	31894	18.039513502664	0.256608
1	31966	18.079085371766	0.256608
1	32029	18.111853371766	0.561723075531
1	32107	18.153538239523	0.21384
1	32164	18.186306239523	0.478394294949
1	32217	18.219074239523	0.286373440961
1	32270	18.251842239523	0.116980307243
1	32335	18.284610239523	0.525568585425

