version 2
run General-0-20190530-19:51:10-13308
attr configname General
attr datetime 20190530-19:51:10
attr experiment General
attr inifile omnetpp.ini
attr iterationvars ""
attr iterationvarsf ""
attr measurement ""
attr network SourceSink
attr processid 13308
attr repetition 0
attr replication #0
attr resultdir results
attr runnumber 0
attr seedset 0

statistic SourceSink.sink "interarrival times"
field count 1467904
field mean 1.0012004255604
field stddev 1.0015378829192
field min 0
field max 14.389600267308
field sum 1469666.1094818
field sqrsum 2943851.7318602
bin	-inf	0
bin	-1.922610934571	0
bin	-1.6662628099615	0
bin	-1.4099146853521	0
bin	-1.1535665607426	0
bin	-0.89721843613313	0
bin	-0.64087031152367	0
bin	-0.3845221869142	0
bin	-0.12817406230473	176616
bin	0.12817406230473	291592
bin	0.3845221869142	225358
bin	0.64087031152367	175282
bin	0.89721843613313	135387
bin	1.1535665607426	104504
bin	1.4099146853521	81437
bin	1.6662628099615	62957
bin	1.922610934571	48439
bin	2.1789590591805	37531
bin	2.4353071837899	29143
bin	2.6916553083994	22483
bin	2.9480034330089	17452
bin	3.2043515576183	13550
bin	3.4606996822278	10321
bin	3.7170478068373	8002
bin	3.9733959314467	6311
bin	4.2297440560562	4876
bin	4.4860921806657	3671
bin	4.7424403052751	2973
bin	4.9987884298846	2272
bin	5.2551365544941	1705
bin	5.5114846791035	1401
bin	5.767832803713	4641

