version 2
run General-2-20190612-00:33:51-18268
attr configname General
attr datetime 20190612-00:33:51
attr experiment General
attr inifile omnetpp.ini
attr iterationvars ""
attr iterationvarsf ""
attr measurement ""
attr network networks.Net5
attr processid 18268
attr repetition 2
attr replication #2
attr resultdir results
attr runnumber 2
attr seedset 2
param **.appType "\"App\""
param **.app.packetLength "1500 bytes"
param **.app.totalNodes 10
param **.destAddresses "\"0\""
param **.sendIaTime "uniform(5s, 10s)"
param **.sendIaTimeEvil 10ms

scalar Net5.rte[0].app hopCount:mean 2.6125
attr interpolationmode none
attr title "hop count of arrived packets, mean"
scalar Net5.rte[0].app hopCount:max 4
attr interpolationmode none
attr title "hop count of arrived packets, max"
scalar Net5.rte[0].app endToEndDelay:mean 0.26612378522706
attr interpolationmode none
attr title "end-to-end delay of arrived packets, mean"
attr unit s
scalar Net5.rte[0].app endToEndDelay:max 0.408333333335
attr interpolationmode none
attr title "end-to-end delay of arrived packets, max"
attr unit s
statistic Net5.rte[0].routing outputIf:histogram
field count 158
field mean -0.50632911392405
field stddev 0.50154964246858
field min -1
field max 0
field sum -80
field sqrsum 80
attr interpolationmode none
attr title "output interface for each routed packet, histogram"
bin	-inf	0
bin	-2	0
bin	-1	80
bin	0	78
bin	1	0
scalar Net5.rte[0].routing drop:count 0
attr interpolationmode none
attr title "dropped packet byte length, count"
attr unit bytes
scalar Net5.rte[0].routing drop:sum 0
attr interpolationmode none
attr title "dropped packet byte length, sum"
attr unit bytes
scalar Net5.rte[0].queue[0] rxBytes:count 80
attr interpolationmode none
attr title "received packet byte length, count"
attr unit bytes
scalar Net5.rte[0].queue[0] rxBytes:sum 120190
attr interpolationmode none
attr title "received packet byte length, sum"
attr unit bytes
statistic Net5.rte[0].queue[0] rxBytes:histogram
field count 80
field mean 1502.375
field stddev 11.165470053651
field min 1500
field max 1570
field sum 120190
field sqrsum 180580300
attr interpolationmode none
attr title "received packet byte length, histogram"
attr unit bytes
bin	-inf	0
bin	1482	0
bin	1484	0
bin	1486	0
bin	1488	0
bin	1490	0
bin	1492	0
bin	1494	0
bin	1496	0
bin	1498	0
bin	1500	76
bin	1502	0
bin	1504	0
bin	1506	0
bin	1508	0
bin	1510	0
bin	1512	0
bin	1514	0
bin	1516	0
bin	1518	0
bin	1520	1
bin	1522	0
bin	1524	0
bin	1526	0
bin	1528	0
bin	1530	0
bin	1532	0
bin	1534	0
bin	1536	0
bin	1538	0
bin	1540	0
bin	1542	0
bin	1544	0
bin	1546	0
bin	1548	0
bin	1550	2
bin	1552	0
bin	1554	0
bin	1556	0
bin	1558	0
bin	1560	0
bin	1562	0
bin	1564	0
bin	1566	0
bin	1568	0
bin	1570	1
bin	1572	0
bin	1574	0
bin	1576	0
bin	1578	0
bin	1580	0
bin	1582	0
bin	1584	0
bin	1586	0
bin	1588	0
scalar Net5.rte[0].queue[0] txBytes:count 78
attr interpolationmode none
attr title "transmitting packet byte length, count"
attr unit bytes
scalar Net5.rte[0].queue[0] txBytes:sum 117060
attr interpolationmode none
attr title "transmitting packet byte length, sum"
attr unit bytes
statistic Net5.rte[0].queue[0] txBytes:histogram
field count 78
field mean 1500.7692307692
field stddev 5.0373232350867
field min 1500
field max 1540
field sum 117060
field sqrsum 175682000
attr interpolationmode none
attr title "transmitting packet byte length, histogram"
attr unit bytes
bin	-inf	0
bin	1490	0
bin	1491	0
bin	1492	0
bin	1493	0
bin	1494	0
bin	1495	0
bin	1496	0
bin	1497	0
bin	1498	0
bin	1499	0
bin	1500	76
bin	1501	0
bin	1502	0
bin	1503	0
bin	1504	0
bin	1505	0
bin	1506	0
bin	1507	0
bin	1508	0
bin	1509	0
bin	1510	0
bin	1511	0
bin	1512	0
bin	1513	0
bin	1514	0
bin	1515	0
bin	1516	0
bin	1517	0
bin	1518	0
bin	1519	0
bin	1520	1
bin	1521	0
bin	1522	0
bin	1523	0
bin	1524	0
bin	1525	0
bin	1526	0
bin	1527	0
bin	1528	0
bin	1529	0
bin	1530	0
bin	1531	0
bin	1532	0
bin	1533	0
bin	1534	0
bin	1535	0
bin	1536	0
bin	1537	0
bin	1538	0
bin	1539	0
bin	1540	1
bin	1541	0
bin	1542	0
bin	1543	0
bin	1544	0
bin	1545	0
bin	1546	0
bin	1547	0
bin	1548	0
bin	1549	0
bin	1550	0
scalar Net5.rte[0].queue[0] busy:timeavg 0.0035295645062279
attr interpolationmode sample-hold
attr title "server busy state, timeavg"
scalar Net5.rte[0].queue[0] qlen:timeavg 0.01302555840337
attr interpolationmode sample-hold
attr title "queue length, timeavg"
scalar Net5.rte[0].queue[0] qlen:max 9
attr interpolationmode sample-hold
attr title "queue length, max"
scalar Net5.rte[0].queue[0] drop:count 0
attr interpolationmode none
attr title "dropped packet byte length, count"
attr unit bytes
scalar Net5.rte[0].queue[0] drop:sum 0
attr interpolationmode none
attr title "dropped packet byte length, sum"
attr unit bytes
scalar Net5.rte[1].app hopCount:mean 2.3103448275862
attr interpolationmode none
attr title "hop count of arrived packets, mean"
scalar Net5.rte[1].app hopCount:max 4
attr interpolationmode none
attr title "hop count of arrived packets, max"
scalar Net5.rte[1].app endToEndDelay:mean 0.23553163808917
attr interpolationmode none
attr title "end-to-end delay of arrived packets, mean"
attr unit s
scalar Net5.rte[1].app endToEndDelay:max 0.411666666669
attr interpolationmode none
attr title "end-to-end delay of arrived packets, max"
attr unit s
statistic Net5.rte[1].routing outputIf:histogram
field count 183
field mean -0.12568306010929
field stddev 0.9021016049152
field min -1
field max 1
field sum -23
field sqrsum 151
attr interpolationmode none
attr title "output interface for each routed packet, histogram"
bin	-inf	0
bin	-2	0
bin	-1	87
bin	0	32
bin	1	64
bin	2	0
scalar Net5.rte[1].routing drop:count 0
attr interpolationmode none
attr title "dropped packet byte length, count"
attr unit bytes
scalar Net5.rte[1].routing drop:sum 0
attr interpolationmode none
attr title "dropped packet byte length, sum"
attr unit bytes
scalar Net5.rte[1].queue[0] rxBytes:count 54
attr interpolationmode none
attr title "received packet byte length, count"
attr unit bytes
scalar Net5.rte[1].queue[0] rxBytes:sum 81080
attr interpolationmode none
attr title "received packet byte length, sum"
attr unit bytes
statistic Net5.rte[1].queue[0] rxBytes:histogram
field count 54
field mean 1501.4814814815
field stddev 7.8685923095265
field min 1500
field max 1550
field sum 81080
field sqrsum 121743400
attr interpolationmode none
attr title "received packet byte length, histogram"
attr unit bytes
bin	-inf	0
bin	1487	0
bin	1488	0
bin	1489	0
bin	1490	0
bin	1491	0
bin	1492	0
bin	1493	0
bin	1494	0
bin	1495	0
bin	1496	0
bin	1497	0
bin	1498	0
bin	1499	0
bin	1500	52
bin	1501	0
bin	1502	0
bin	1503	0
bin	1504	0
bin	1505	0
bin	1506	0
bin	1507	0
bin	1508	0
bin	1509	0
bin	1510	0
bin	1511	0
bin	1512	0
bin	1513	0
bin	1514	0
bin	1515	0
bin	1516	0
bin	1517	0
bin	1518	0
bin	1519	0
bin	1520	0
bin	1521	0
bin	1522	0
bin	1523	0
bin	1524	0
bin	1525	0
bin	1526	0
bin	1527	0
bin	1528	0
bin	1529	0
bin	1530	1
bin	1531	0
bin	1532	0
bin	1533	0
bin	1534	0
bin	1535	0
bin	1536	0
bin	1537	0
bin	1538	0
bin	1539	0
bin	1540	0
bin	1541	0
bin	1542	0
bin	1543	0
bin	1544	0
bin	1545	0
bin	1546	0
bin	1547	0
bin	1548	0
bin	1549	0
bin	1550	1
bin	1551	0
bin	1552	0
bin	1553	0
bin	1554	0
bin	1555	0
bin	1556	0
bin	1557	0
bin	1558	0
bin	1559	0
bin	1560	0
bin	1561	0
bin	1562	0
bin	1563	0
scalar Net5.rte[1].queue[0] txBytes:count 32
attr interpolationmode none
attr title "transmitting packet byte length, count"
attr unit bytes
scalar Net5.rte[1].queue[0] txBytes:sum 48200
attr interpolationmode none
attr title "transmitting packet byte length, sum"
attr unit bytes
statistic Net5.rte[1].queue[0] txBytes:histogram
field count 32
field mean 1506.25
field stddev 20.75199174273
field min 1500
field max 1590
field sum 48200
field sqrsum 72614600
attr interpolationmode none
attr title "transmitting packet byte length, histogram"
attr unit bytes
bin	-inf	0
bin	1476	0
bin	1478	0
bin	1480	0
bin	1482	0
bin	1484	0
bin	1486	0
bin	1488	0
bin	1490	0
bin	1492	0
bin	1494	0
bin	1496	0
bin	1498	0
bin	1500	29
bin	1502	0
bin	1504	0
bin	1506	0
bin	1508	0
bin	1510	0
bin	1512	0
bin	1514	0
bin	1516	0
bin	1518	0
bin	1520	0
bin	1522	0
bin	1524	0
bin	1526	0
bin	1528	0
bin	1530	0
bin	1532	0
bin	1534	0
bin	1536	0
bin	1538	0
bin	1540	1
bin	1542	0
bin	1544	0
bin	1546	0
bin	1548	0
bin	1550	0
bin	1552	0
bin	1554	0
bin	1556	0
bin	1558	0
bin	1560	0
bin	1562	0
bin	1564	0
bin	1566	0
bin	1568	0
bin	1570	1
bin	1572	0
bin	1574	0
bin	1576	0
bin	1578	0
bin	1580	0
bin	1582	0
bin	1584	0
bin	1586	0
bin	1588	0
bin	1590	1
bin	1592	0
bin	1594	0
bin	1596	0
bin	1598	0
bin	1600	0
bin	1602	0
bin	1604	0
bin	1606	0
bin	1608	0
bin	1610	0
bin	1612	0
bin	1614	0
scalar Net5.rte[1].queue[0] busy:timeavg 0.0014533146181194
attr interpolationmode sample-hold
attr title "server busy state, timeavg"
scalar Net5.rte[1].queue[0] qlen:timeavg 0.0012211461003159
attr interpolationmode sample-hold
attr title "queue length, timeavg"
scalar Net5.rte[1].queue[0] qlen:max 3
attr interpolationmode sample-hold
attr title "queue length, max"
scalar Net5.rte[1].queue[0] drop:count 0
attr interpolationmode none
attr title "dropped packet byte length, count"
attr unit bytes
scalar Net5.rte[1].queue[0] drop:sum 0
attr interpolationmode none
attr title "dropped packet byte length, sum"
attr unit bytes
scalar Net5.rte[1].queue[1] rxBytes:count 33
attr interpolationmode none
attr title "received packet byte length, count"
attr unit bytes
scalar Net5.rte[1].queue[1] rxBytes:sum 49500
attr interpolationmode none
attr title "received packet byte length, sum"
attr unit bytes
statistic Net5.rte[1].queue[1] rxBytes:histogram
field count 33
field mean 1500
field stddev 0
field min 1500
field max 1500
field sum 49500
field sqrsum 74250000
attr interpolationmode none
attr title "received packet byte length, histogram"
attr unit bytes
bin	-inf	0
bin	1499	0
bin	1500	33
bin	1501	0
scalar Net5.rte[1].queue[1] txBytes:count 64
attr interpolationmode none
attr title "transmitting packet byte length, count"
attr unit bytes
scalar Net5.rte[1].queue[1] txBytes:sum 96180
attr interpolationmode none
attr title "transmitting packet byte length, sum"
attr unit bytes
statistic Net5.rte[1].queue[1] txBytes:histogram
field count 64
field mean 1502.8125
field stddev 13.269938577148
field min 1500
field max 1590
field sum 96180
field sqrsum 144551600
attr interpolationmode none
attr title "transmitting packet byte length, histogram"
attr unit bytes
bin	-inf	0
bin	1476	0
bin	1478	0
bin	1480	0
bin	1482	0
bin	1484	0
bin	1486	0
bin	1488	0
bin	1490	0
bin	1492	0
bin	1494	0
bin	1496	0
bin	1498	0
bin	1500	60
bin	1502	0
bin	1504	0
bin	1506	0
bin	1508	0
bin	1510	1
bin	1512	0
bin	1514	0
bin	1516	0
bin	1518	0
bin	1520	0
bin	1522	0
bin	1524	0
bin	1526	0
bin	1528	0
bin	1530	1
bin	1532	0
bin	1534	0
bin	1536	0
bin	1538	0
bin	1540	0
bin	1542	0
bin	1544	0
bin	1546	0
bin	1548	0
bin	1550	1
bin	1552	0
bin	1554	0
bin	1556	0
bin	1558	0
bin	1560	0
bin	1562	0
bin	1564	0
bin	1566	0
bin	1568	0
bin	1570	0
bin	1572	0
bin	1574	0
bin	1576	0
bin	1578	0
bin	1580	0
bin	1582	0
bin	1584	0
bin	1586	0
bin	1588	0
bin	1590	1
bin	1592	0
bin	1594	0
bin	1596	0
bin	1598	0
bin	1600	0
bin	1602	0
bin	1604	0
bin	1606	0
bin	1608	0
bin	1610	0
bin	1612	0
bin	1614	0
scalar Net5.rte[1].queue[1] busy:timeavg 0.0028999958500553
attr interpolationmode sample-hold
attr title "server busy state, timeavg"
scalar Net5.rte[1].queue[1] qlen:timeavg 0.0059700476015444
attr interpolationmode sample-hold
attr title "queue length, timeavg"
scalar Net5.rte[1].queue[1] qlen:max 6
attr interpolationmode sample-hold
attr title "queue length, max"
scalar Net5.rte[1].queue[1] drop:count 0
attr interpolationmode none
attr title "dropped packet byte length, count"
attr unit bytes
scalar Net5.rte[1].queue[1] drop:sum 0
attr interpolationmode none
attr title "dropped packet byte length, sum"
attr unit bytes
scalar Net5.rte[2].app hopCount:mean 1.7926829268293
attr interpolationmode none
attr title "hop count of arrived packets, mean"
scalar Net5.rte[2].app hopCount:max 3
attr interpolationmode none
attr title "hop count of arrived packets, max"
scalar Net5.rte[2].app endToEndDelay:mean 0.18400785907951
attr interpolationmode none
attr title "end-to-end delay of arrived packets, mean"
attr unit s
scalar Net5.rte[2].app endToEndDelay:max 0.311666666669
attr interpolationmode none
attr title "end-to-end delay of arrived packets, max"
attr unit s
statistic Net5.rte[2].routing outputIf:histogram
field count 310
field mean 0.79032258064516
field stddev 1.4019992287275
field min -1
field max 3
field sum 245
field sqrsum 801
attr interpolationmode none
attr title "output interface for each routed packet, histogram"
bin	-inf	0
bin	-2	0
bin	-1	82
bin	0	54
bin	1	64
bin	2	67
bin	3	43
bin	4	0
scalar Net5.rte[2].routing drop:count 0
attr interpolationmode none
attr title "dropped packet byte length, count"
attr unit bytes
scalar Net5.rte[2].routing drop:sum 0
attr interpolationmode none
attr title "dropped packet byte length, sum"
attr unit bytes
scalar Net5.rte[2].queue[0] rxBytes:count 32
attr interpolationmode none
attr title "received packet byte length, count"
attr unit bytes
scalar Net5.rte[2].queue[0] rxBytes:sum 48200
attr interpolationmode none
attr title "received packet byte length, sum"
attr unit bytes
statistic Net5.rte[2].queue[0] rxBytes:histogram
field count 32
field mean 1506.25
field stddev 20.75199174273
field min 1500
field max 1590
field sum 48200
field sqrsum 72614600
attr interpolationmode none
attr title "received packet byte length, histogram"
attr unit bytes
bin	-inf	0
bin	1476	0
bin	1478	0
bin	1480	0
bin	1482	0
bin	1484	0
bin	1486	0
bin	1488	0
bin	1490	0
bin	1492	0
bin	1494	0
bin	1496	0
bin	1498	0
bin	1500	29
bin	1502	0
bin	1504	0
bin	1506	0
bin	1508	0
bin	1510	0
bin	1512	0
bin	1514	0
bin	1516	0
bin	1518	0
bin	1520	0
bin	1522	0
bin	1524	0
bin	1526	0
bin	1528	0
bin	1530	0
bin	1532	0
bin	1534	0
bin	1536	0
bin	1538	0
bin	1540	1
bin	1542	0
bin	1544	0
bin	1546	0
bin	1548	0
bin	1550	0
bin	1552	0
bin	1554	0
bin	1556	0
bin	1558	0
bin	1560	0
bin	1562	0
bin	1564	0
bin	1566	0
bin	1568	0
bin	1570	1
bin	1572	0
bin	1574	0
bin	1576	0
bin	1578	0
bin	1580	0
bin	1582	0
bin	1584	0
bin	1586	0
bin	1588	0
bin	1590	1
bin	1592	0
bin	1594	0
bin	1596	0
bin	1598	0
bin	1600	0
bin	1602	0
bin	1604	0
bin	1606	0
bin	1608	0
bin	1610	0
bin	1612	0
bin	1614	0
scalar Net5.rte[2].queue[0] txBytes:count 54
attr interpolationmode none
attr title "transmitting packet byte length, count"
attr unit bytes
scalar Net5.rte[2].queue[0] txBytes:sum 81080
attr interpolationmode none
attr title "transmitting packet byte length, sum"
attr unit bytes
statistic Net5.rte[2].queue[0] txBytes:histogram
field count 54
field mean 1501.4814814815
field stddev 7.8685923095265
field min 1500
field max 1550
field sum 81080
field sqrsum 121743400
attr interpolationmode none
attr title "transmitting packet byte length, histogram"
attr unit bytes
bin	-inf	0
bin	1487	0
bin	1488	0
bin	1489	0
bin	1490	0
bin	1491	0
bin	1492	0
bin	1493	0
bin	1494	0
bin	1495	0
bin	1496	0
bin	1497	0
bin	1498	0
bin	1499	0
bin	1500	52
bin	1501	0
bin	1502	0
bin	1503	0
bin	1504	0
bin	1505	0
bin	1506	0
bin	1507	0
bin	1508	0
bin	1509	0
bin	1510	0
bin	1511	0
bin	1512	0
bin	1513	0
bin	1514	0
bin	1515	0
bin	1516	0
bin	1517	0
bin	1518	0
bin	1519	0
bin	1520	0
bin	1521	0
bin	1522	0
bin	1523	0
bin	1524	0
bin	1525	0
bin	1526	0
bin	1527	0
bin	1528	0
bin	1529	0
bin	1530	1
bin	1531	0
bin	1532	0
bin	1533	0
bin	1534	0
bin	1535	0
bin	1536	0
bin	1537	0
bin	1538	0
bin	1539	0
bin	1540	0
bin	1541	0
bin	1542	0
bin	1543	0
bin	1544	0
bin	1545	0
bin	1546	0
bin	1547	0
bin	1548	0
bin	1549	0
bin	1550	1
bin	1551	0
bin	1552	0
bin	1553	0
bin	1554	0
bin	1555	0
bin	1556	0
bin	1557	0
bin	1558	0
bin	1559	0
bin	1560	0
bin	1561	0
bin	1562	0
bin	1563	0
scalar Net5.rte[2].queue[0] busy:timeavg 0.0024447043410523
attr interpolationmode sample-hold
attr title "server busy state, timeavg"
scalar Net5.rte[2].queue[0] qlen:timeavg 0
attr interpolationmode sample-hold
attr title "queue length, timeavg"
scalar Net5.rte[2].queue[0] qlen:max 0
attr interpolationmode sample-hold
attr title "queue length, max"
scalar Net5.rte[2].queue[0] drop:count 0
attr interpolationmode none
attr title "dropped packet byte length, count"
attr unit bytes
scalar Net5.rte[2].queue[0] drop:sum 0
attr interpolationmode none
attr title "dropped packet byte length, sum"
attr unit bytes
scalar Net5.rte[2].queue[1] rxBytes:count 55
attr interpolationmode none
attr title "received packet byte length, count"
attr unit bytes
scalar Net5.rte[2].queue[1] rxBytes:sum 82670
attr interpolationmode none
attr title "received packet byte length, sum"
attr unit bytes
statistic Net5.rte[2].queue[1] rxBytes:histogram
field count 55
field mean 1503.0909090909
field stddev 12.303677148743
field min 1500
field max 1570
field sum 82670
field sqrsum 124268700
attr interpolationmode none
attr title "received packet byte length, histogram"
attr unit bytes
bin	-inf	0
bin	1482	0
bin	1484	0
bin	1486	0
bin	1488	0
bin	1490	0
bin	1492	0
bin	1494	0
bin	1496	0
bin	1498	0
bin	1500	51
bin	1502	0
bin	1504	0
bin	1506	0
bin	1508	0
bin	1510	0
bin	1512	0
bin	1514	0
bin	1516	0
bin	1518	0
bin	1520	1
bin	1522	0
bin	1524	0
bin	1526	0
bin	1528	0
bin	1530	1
bin	1532	0
bin	1534	0
bin	1536	0
bin	1538	0
bin	1540	0
bin	1542	0
bin	1544	0
bin	1546	0
bin	1548	0
bin	1550	1
bin	1552	0
bin	1554	0
bin	1556	0
bin	1558	0
bin	1560	0
bin	1562	0
bin	1564	0
bin	1566	0
bin	1568	0
bin	1570	1
bin	1572	0
bin	1574	0
bin	1576	0
bin	1578	0
bin	1580	0
bin	1582	0
bin	1584	0
bin	1586	0
bin	1588	0
scalar Net5.rte[2].queue[1] txBytes:count 64
attr interpolationmode none
attr title "transmitting packet byte length, count"
attr unit bytes
scalar Net5.rte[2].queue[1] txBytes:sum 96050
attr interpolationmode none
attr title "transmitting packet byte length, sum"
attr unit bytes
statistic Net5.rte[2].queue[1] txBytes:histogram
field count 64
field mean 1500.78125
field stddev 5.1345970924297
field min 1500
field max 1540
field sum 96050
field sqrsum 144151700
attr interpolationmode none
attr title "transmitting packet byte length, histogram"
attr unit bytes
bin	-inf	0
bin	1490	0
bin	1491	0
bin	1492	0
bin	1493	0
bin	1494	0
bin	1495	0
bin	1496	0
bin	1497	0
bin	1498	0
bin	1499	0
bin	1500	62
bin	1501	0
bin	1502	0
bin	1503	0
bin	1504	0
bin	1505	0
bin	1506	0
bin	1507	0
bin	1508	0
bin	1509	0
bin	1510	1
bin	1511	0
bin	1512	0
bin	1513	0
bin	1514	0
bin	1515	0
bin	1516	0
bin	1517	0
bin	1518	0
bin	1519	0
bin	1520	0
bin	1521	0
bin	1522	0
bin	1523	0
bin	1524	0
bin	1525	0
bin	1526	0
bin	1527	0
bin	1528	0
bin	1529	0
bin	1530	0
bin	1531	0
bin	1532	0
bin	1533	0
bin	1534	0
bin	1535	0
bin	1536	0
bin	1537	0
bin	1538	0
bin	1539	0
bin	1540	1
bin	1541	0
bin	1542	0
bin	1543	0
bin	1544	0
bin	1545	0
bin	1546	0
bin	1547	0
bin	1548	0
bin	1549	0
bin	1550	0
scalar Net5.rte[2].queue[1] busy:timeavg 0.0028960761218449
attr interpolationmode sample-hold
attr title "server busy state, timeavg"
scalar Net5.rte[2].queue[1] qlen:timeavg 0.0023518369339417
attr interpolationmode sample-hold
attr title "queue length, timeavg"
scalar Net5.rte[2].queue[1] qlen:max 4
attr interpolationmode sample-hold
attr title "queue length, max"
scalar Net5.rte[2].queue[1] drop:count 0
attr interpolationmode none
attr title "dropped packet byte length, count"
attr unit bytes
scalar Net5.rte[2].queue[1] drop:sum 0
attr interpolationmode none
attr title "dropped packet byte length, sum"
attr unit bytes
scalar Net5.rte[2].queue[2] rxBytes:count 98
attr interpolationmode none
attr title "received packet byte length, count"
attr unit bytes
scalar Net5.rte[2].queue[2] rxBytes:sum 147230
attr interpolationmode none
attr title "received packet byte length, sum"
attr unit bytes
statistic Net5.rte[2].queue[2] rxBytes:histogram
field count 98
field mean 1502.3469387755
field stddev 12.25174259923
field min 1500
field max 1600
field sum 147230
field sqrsum 221205100
attr interpolationmode none
attr title "received packet byte length, histogram"
attr unit bytes
bin	-inf	0
bin	1474	0
bin	1476	0
bin	1478	0
bin	1480	0
bin	1482	0
bin	1484	0
bin	1486	0
bin	1488	0
bin	1490	0
bin	1492	0
bin	1494	0
bin	1496	0
bin	1498	0
bin	1500	93
bin	1502	0
bin	1504	0
bin	1506	0
bin	1508	0
bin	1510	1
bin	1512	0
bin	1514	0
bin	1516	0
bin	1518	0
bin	1520	0
bin	1522	0
bin	1524	0
bin	1526	0
bin	1528	0
bin	1530	1
bin	1532	0
bin	1534	0
bin	1536	0
bin	1538	0
bin	1540	1
bin	1542	0
bin	1544	0
bin	1546	0
bin	1548	0
bin	1550	1
bin	1552	0
bin	1554	0
bin	1556	0
bin	1558	0
bin	1560	0
bin	1562	0
bin	1564	0
bin	1566	0
bin	1568	0
bin	1570	0
bin	1572	0
bin	1574	0
bin	1576	0
bin	1578	0
bin	1580	0
bin	1582	0
bin	1584	0
bin	1586	0
bin	1588	0
bin	1590	0
bin	1592	0
bin	1594	0
bin	1596	0
bin	1598	0
bin	1600	1
bin	1602	0
bin	1604	0
bin	1606	0
bin	1608	0
bin	1610	0
bin	1612	0
bin	1614	0
bin	1616	0
bin	1618	0
bin	1620	0
bin	1622	0
bin	1624	0
bin	1626	0
scalar Net5.rte[2].queue[2] txBytes:count 67
attr interpolationmode none
attr title "transmitting packet byte length, count"
attr unit bytes
scalar Net5.rte[2].queue[2] txBytes:sum 100870
attr interpolationmode none
attr title "transmitting packet byte length, sum"
attr unit bytes
statistic Net5.rte[2].queue[2] txBytes:histogram
field count 67
field mean 1505.5223880597
field stddev 17.257723970297
field min 1500
field max 1570
field sum 100870
field sqrsum 151881700
attr interpolationmode none
attr title "transmitting packet byte length, histogram"
attr unit bytes
bin	-inf	0
bin	1482	0
bin	1484	0
bin	1486	0
bin	1488	0
bin	1490	0
bin	1492	0
bin	1494	0
bin	1496	0
bin	1498	0
bin	1500	60
bin	1502	0
bin	1504	0
bin	1506	0
bin	1508	0
bin	1510	0
bin	1512	0
bin	1514	0
bin	1516	0
bin	1518	0
bin	1520	1
bin	1522	0
bin	1524	0
bin	1526	0
bin	1528	0
bin	1530	0
bin	1532	0
bin	1534	0
bin	1536	0
bin	1538	0
bin	1540	1
bin	1542	0
bin	1544	0
bin	1546	0
bin	1548	0
bin	1550	2
bin	1552	0
bin	1554	0
bin	1556	0
bin	1558	0
bin	1560	0
bin	1562	0
bin	1564	0
bin	1566	0
bin	1568	0
bin	1570	3
bin	1572	0
bin	1574	0
bin	1576	0
bin	1578	0
bin	1580	0
bin	1582	0
bin	1584	0
bin	1586	0
bin	1588	0
scalar Net5.rte[2].queue[2] busy:timeavg 0.0030414075835619
attr interpolationmode sample-hold
attr title "server busy state, timeavg"
scalar Net5.rte[2].queue[2] qlen:timeavg 0.0014472842670411
attr interpolationmode sample-hold
attr title "queue length, timeavg"
scalar Net5.rte[2].queue[2] qlen:max 3
attr interpolationmode sample-hold
attr title "queue length, max"
scalar Net5.rte[2].queue[2] drop:count 0
attr interpolationmode none
attr title "dropped packet byte length, count"
attr unit bytes
scalar Net5.rte[2].queue[2] drop:sum 0
attr interpolationmode none
attr title "dropped packet byte length, sum"
attr unit bytes
scalar Net5.rte[2].queue[3] rxBytes:count 36
attr interpolationmode none
attr title "received packet byte length, count"
attr unit bytes
scalar Net5.rte[2].queue[3] rxBytes:sum 54020
attr interpolationmode none
attr title "received packet byte length, sum"
attr unit bytes
statistic Net5.rte[2].queue[3] rxBytes:histogram
field count 36
field mean 1500.5555555556
field stddev 3.3333333333617
field min 1500
field max 1520
field sum 54020
field sqrsum 81060400
attr interpolationmode none
attr title "received packet byte length, histogram"
attr unit bytes
bin	-inf	0
bin	1495	0
bin	1496	0
bin	1497	0
bin	1498	0
bin	1499	0
bin	1500	35
bin	1501	0
bin	1502	0
bin	1503	0
bin	1504	0
bin	1505	0
bin	1506	0
bin	1507	0
bin	1508	0
bin	1509	0
bin	1510	0
bin	1511	0
bin	1512	0
bin	1513	0
bin	1514	0
bin	1515	0
bin	1516	0
bin	1517	0
bin	1518	0
bin	1519	0
bin	1520	1
bin	1521	0
bin	1522	0
bin	1523	0
bin	1524	0
bin	1525	0
scalar Net5.rte[2].queue[3] txBytes:count 43
attr interpolationmode none
attr title "transmitting packet byte length, count"
attr unit bytes
scalar Net5.rte[2].queue[3] txBytes:sum 64630
attr interpolationmode none
attr title "transmitting packet byte length, sum"
attr unit bytes
statistic Net5.rte[2].queue[3] txBytes:histogram
field count 43
field mean 1503.023255814
field stddev 15.816640381475
field min 1500
field max 1600
field sum 64630
field sqrsum 97150900
attr interpolationmode none
attr title "transmitting packet byte length, histogram"
attr unit bytes
bin	-inf	0
bin	1474	0
bin	1476	0
bin	1478	0
bin	1480	0
bin	1482	0
bin	1484	0
bin	1486	0
bin	1488	0
bin	1490	0
bin	1492	0
bin	1494	0
bin	1496	0
bin	1498	0
bin	1500	41
bin	1502	0
bin	1504	0
bin	1506	0
bin	1508	0
bin	1510	0
bin	1512	0
bin	1514	0
bin	1516	0
bin	1518	0
bin	1520	0
bin	1522	0
bin	1524	0
bin	1526	0
bin	1528	0
bin	1530	1
bin	1532	0
bin	1534	0
bin	1536	0
bin	1538	0
bin	1540	0
bin	1542	0
bin	1544	0
bin	1546	0
bin	1548	0
bin	1550	0
bin	1552	0
bin	1554	0
bin	1556	0
bin	1558	0
bin	1560	0
bin	1562	0
bin	1564	0
bin	1566	0
bin	1568	0
bin	1570	0
bin	1572	0
bin	1574	0
bin	1576	0
bin	1578	0
bin	1580	0
bin	1582	0
bin	1584	0
bin	1586	0
bin	1588	0
bin	1590	0
bin	1592	0
bin	1594	0
bin	1596	0
bin	1598	0
bin	1600	1
bin	1602	0
bin	1604	0
bin	1606	0
bin	1608	0
bin	1610	0
bin	1612	0
bin	1614	0
bin	1616	0
bin	1618	0
bin	1620	0
bin	1622	0
bin	1624	0
bin	1626	0
scalar Net5.rte[2].queue[3] busy:timeavg 0.0019487079620468
attr interpolationmode sample-hold
attr title "server busy state, timeavg"
scalar Net5.rte[2].queue[3] qlen:timeavg 0
attr interpolationmode sample-hold
attr title "queue length, timeavg"
scalar Net5.rte[2].queue[3] qlen:max 0
attr interpolationmode sample-hold
attr title "queue length, max"
scalar Net5.rte[2].queue[3] drop:count 0
attr interpolationmode none
attr title "dropped packet byte length, count"
attr unit bytes
scalar Net5.rte[2].queue[3] drop:sum 0
attr interpolationmode none
attr title "dropped packet byte length, sum"
attr unit bytes
scalar Net5.rte[3].app hopCount:mean 1.7179487179487
attr interpolationmode none
attr title "hop count of arrived packets, mean"
scalar Net5.rte[3].app hopCount:max 3
attr interpolationmode none
attr title "hop count of arrived packets, max"
scalar Net5.rte[3].app endToEndDelay:mean 0.17722118673108
attr interpolationmode none
attr title "end-to-end delay of arrived packets, mean"
attr unit s
scalar Net5.rte[3].app endToEndDelay:max 0.308333333335
attr interpolationmode none
attr title "end-to-end delay of arrived packets, max"
attr unit s
statistic Net5.rte[3].routing outputIf:histogram
field count 403
field mean 0.79900744416873
field stddev 1.2285164808522
field min -1
field max 3
field sum 322
field sqrsum 864
attr interpolationmode none
attr title "output interface for each routed packet, histogram"
bin	-inf	0
bin	-2	0
bin	-1	78
bin	0	80
bin	1	128
bin	2	79
bin	3	38
bin	4	0
scalar Net5.rte[3].routing drop:count 0
attr interpolationmode none
attr title "dropped packet byte length, count"
attr unit bytes
scalar Net5.rte[3].routing drop:sum 0
attr interpolationmode none
attr title "dropped packet byte length, sum"
attr unit bytes
scalar Net5.rte[3].queue[0] rxBytes:count 78
attr interpolationmode none
attr title "received packet byte length, count"
attr unit bytes
scalar Net5.rte[3].queue[0] rxBytes:sum 117060
attr interpolationmode none
attr title "received packet byte length, sum"
attr unit bytes
statistic Net5.rte[3].queue[0] rxBytes:histogram
field count 78
field mean 1500.7692307692
field stddev 5.0373232350867
field min 1500
field max 1540
field sum 117060
field sqrsum 175682000
attr interpolationmode none
attr title "received packet byte length, histogram"
attr unit bytes
bin	-inf	0
bin	1490	0
bin	1491	0
bin	1492	0
bin	1493	0
bin	1494	0
bin	1495	0
bin	1496	0
bin	1497	0
bin	1498	0
bin	1499	0
bin	1500	76
bin	1501	0
bin	1502	0
bin	1503	0
bin	1504	0
bin	1505	0
bin	1506	0
bin	1507	0
bin	1508	0
bin	1509	0
bin	1510	0
bin	1511	0
bin	1512	0
bin	1513	0
bin	1514	0
bin	1515	0
bin	1516	0
bin	1517	0
bin	1518	0
bin	1519	0
bin	1520	1
bin	1521	0
bin	1522	0
bin	1523	0
bin	1524	0
bin	1525	0
bin	1526	0
bin	1527	0
bin	1528	0
bin	1529	0
bin	1530	0
bin	1531	0
bin	1532	0
bin	1533	0
bin	1534	0
bin	1535	0
bin	1536	0
bin	1537	0
bin	1538	0
bin	1539	0
bin	1540	1
bin	1541	0
bin	1542	0
bin	1543	0
bin	1544	0
bin	1545	0
bin	1546	0
bin	1547	0
bin	1548	0
bin	1549	0
bin	1550	0
scalar Net5.rte[3].queue[0] txBytes:count 80
attr interpolationmode none
attr title "transmitting packet byte length, count"
attr unit bytes
scalar Net5.rte[3].queue[0] txBytes:sum 120190
attr interpolationmode none
attr title "transmitting packet byte length, sum"
attr unit bytes
statistic Net5.rte[3].queue[0] txBytes:histogram
field count 80
field mean 1502.375
field stddev 11.165470053651
field min 1500
field max 1570
field sum 120190
field sqrsum 180580300
attr interpolationmode none
attr title "transmitting packet byte length, histogram"
attr unit bytes
bin	-inf	0
bin	1482	0
bin	1484	0
bin	1486	0
bin	1488	0
bin	1490	0
bin	1492	0
bin	1494	0
bin	1496	0
bin	1498	0
bin	1500	76
bin	1502	0
bin	1504	0
bin	1506	0
bin	1508	0
bin	1510	0
bin	1512	0
bin	1514	0
bin	1516	0
bin	1518	0
bin	1520	1
bin	1522	0
bin	1524	0
bin	1526	0
bin	1528	0
bin	1530	0
bin	1532	0
bin	1534	0
bin	1536	0
bin	1538	0
bin	1540	0
bin	1542	0
bin	1544	0
bin	1546	0
bin	1548	0
bin	1550	2
bin	1552	0
bin	1554	0
bin	1556	0
bin	1558	0
bin	1560	0
bin	1562	0
bin	1564	0
bin	1566	0
bin	1568	0
bin	1570	1
bin	1572	0
bin	1574	0
bin	1576	0
bin	1578	0
bin	1580	0
bin	1582	0
bin	1584	0
bin	1586	0
bin	1588	0
scalar Net5.rte[3].queue[0] busy:timeavg 0.0036239395011013
attr interpolationmode sample-hold
attr title "server busy state, timeavg"
scalar Net5.rte[3].queue[0] qlen:timeavg 7.7044605158618e-005
attr interpolationmode sample-hold
attr title "queue length, timeavg"
scalar Net5.rte[3].queue[0] qlen:max 1
attr interpolationmode sample-hold
attr title "queue length, max"
scalar Net5.rte[3].queue[0] drop:count 0
attr interpolationmode none
attr title "dropped packet byte length, count"
attr unit bytes
scalar Net5.rte[3].queue[0] drop:sum 0
attr interpolationmode none
attr title "dropped packet byte length, sum"
attr unit bytes
scalar Net5.rte[3].queue[1] rxBytes:count 130
attr interpolationmode none
attr title "received packet byte length, count"
attr unit bytes
scalar Net5.rte[3].queue[1] rxBytes:sum 195120
attr interpolationmode none
attr title "received packet byte length, sum"
attr unit bytes
statistic Net5.rte[3].queue[1] rxBytes:histogram
field count 130
field mean 1500.9230769231
field stddev 6.4032639262066
field min 1500
field max 1550
field sum 195120
field sqrsum 292865400
attr interpolationmode none
attr title "received packet byte length, histogram"
attr unit bytes
bin	-inf	0
bin	1495	0
bin	1496	0
bin	1497	0
bin	1498	0
bin	1499	0
bin	1500	127
bin	1501	0
bin	1502	0
bin	1503	0
bin	1504	0
bin	1505	0
bin	1506	0
bin	1507	0
bin	1508	0
bin	1509	0
bin	1510	0
bin	1511	0
bin	1512	0
bin	1513	0
bin	1514	0
bin	1515	0
bin	1516	0
bin	1517	0
bin	1518	0
bin	1519	0
bin	1520	1
bin	1521	0
bin	1522	0
bin	1523	0
bin	1524	0
bin	1525	0
bin	1526	0
bin	1527	0
bin	1528	0
bin	1529	0
bin	1530	0
bin	1531	0
bin	1532	0
bin	1533	0
bin	1534	0
bin	1535	0
bin	1536	0
bin	1537	0
bin	1538	0
bin	1539	0
bin	1540	0
bin	1541	0
bin	1542	0
bin	1543	0
bin	1544	0
bin	1545	0
bin	1546	0
bin	1547	0
bin	1548	0
bin	1549	0
bin	1550	2
bin	1551	0
scalar Net5.rte[3].queue[1] txBytes:count 128
attr interpolationmode none
attr title "transmitting packet byte length, count"
attr unit bytes
scalar Net5.rte[3].queue[1] txBytes:sum 192180
attr interpolationmode none
attr title "transmitting packet byte length, sum"
attr unit bytes
statistic Net5.rte[3].queue[1] txBytes:histogram
field count 128
field mean 1501.40625
field stddev 8.1069985319383
field min 1500
field max 1570
field sum 192180
field sqrsum 288548600
attr interpolationmode none
attr title "transmitting packet byte length, histogram"
attr unit bytes
bin	-inf	0
bin	1482	0
bin	1484	0
bin	1486	0
bin	1488	0
bin	1490	0
bin	1492	0
bin	1494	0
bin	1496	0
bin	1498	0
bin	1500	123
bin	1502	0
bin	1504	0
bin	1506	0
bin	1508	0
bin	1510	1
bin	1512	0
bin	1514	0
bin	1516	0
bin	1518	0
bin	1520	1
bin	1522	0
bin	1524	0
bin	1526	0
bin	1528	0
bin	1530	0
bin	1532	0
bin	1534	0
bin	1536	0
bin	1538	0
bin	1540	2
bin	1542	0
bin	1544	0
bin	1546	0
bin	1548	0
bin	1550	0
bin	1552	0
bin	1554	0
bin	1556	0
bin	1558	0
bin	1560	0
bin	1562	0
bin	1564	0
bin	1566	0
bin	1568	0
bin	1570	1
bin	1572	0
bin	1574	0
bin	1576	0
bin	1578	0
bin	1580	0
bin	1582	0
bin	1584	0
bin	1586	0
bin	1588	0
scalar Net5.rte[3].queue[1] busy:timeavg 0.0057945643841103
attr interpolationmode sample-hold
attr title "server busy state, timeavg"
scalar Net5.rte[3].queue[1] qlen:timeavg 0.0018091053338013
attr interpolationmode sample-hold
attr title "queue length, timeavg"
scalar Net5.rte[3].queue[1] qlen:max 4
attr interpolationmode sample-hold
attr title "queue length, max"
scalar Net5.rte[3].queue[1] drop:count 0
attr interpolationmode none
attr title "dropped packet byte length, count"
attr unit bytes
scalar Net5.rte[3].queue[1] drop:sum 0
attr interpolationmode none
attr title "dropped packet byte length, sum"
attr unit bytes
scalar Net5.rte[3].queue[2] rxBytes:count 86
attr interpolationmode none
attr title "received packet byte length, count"
attr unit bytes
scalar Net5.rte[3].queue[2] rxBytes:sum 129230
attr interpolationmode none
attr title "received packet byte length, sum"
attr unit bytes
statistic Net5.rte[3].queue[2] rxBytes:histogram
field count 86
field mean 1502.6744186047
field stddev 12.501709869376
field min 1500
field max 1570
field sum 129230
field sqrsum 194203900
attr interpolationmode none
attr title "received packet byte length, histogram"
attr unit bytes
bin	-inf	0
bin	1482	0
bin	1484	0
bin	1486	0
bin	1488	0
bin	1490	0
bin	1492	0
bin	1494	0
bin	1496	0
bin	1498	0
bin	1500	82
bin	1502	0
bin	1504	0
bin	1506	0
bin	1508	0
bin	1510	0
bin	1512	0
bin	1514	0
bin	1516	0
bin	1518	0
bin	1520	0
bin	1522	0
bin	1524	0
bin	1526	0
bin	1528	0
bin	1530	0
bin	1532	0
bin	1534	0
bin	1536	0
bin	1538	0
bin	1540	1
bin	1542	0
bin	1544	0
bin	1546	0
bin	1548	0
bin	1550	1
bin	1552	0
bin	1554	0
bin	1556	0
bin	1558	0
bin	1560	0
bin	1562	0
bin	1564	0
bin	1566	0
bin	1568	0
bin	1570	2
bin	1572	0
bin	1574	0
bin	1576	0
bin	1578	0
bin	1580	0
bin	1582	0
bin	1584	0
bin	1586	0
bin	1588	0
scalar Net5.rte[3].queue[2] txBytes:count 79
attr interpolationmode none
attr title "transmitting packet byte length, count"
attr unit bytes
scalar Net5.rte[3].queue[2] txBytes:sum 118670
attr interpolationmode none
attr title "transmitting packet byte length, sum"
attr unit bytes
statistic Net5.rte[3].queue[2] txBytes:histogram
field count 79
field mean 1502.1518987342
field stddev 9.5636713897508
field min 1500
field max 1550
field sum 118670
field sqrsum 178267500
attr interpolationmode none
attr title "transmitting packet byte length, histogram"
attr unit bytes
bin	-inf	0
bin	1487	0
bin	1488	0
bin	1489	0
bin	1490	0
bin	1491	0
bin	1492	0
bin	1493	0
bin	1494	0
bin	1495	0
bin	1496	0
bin	1497	0
bin	1498	0
bin	1499	0
bin	1500	75
bin	1501	0
bin	1502	0
bin	1503	0
bin	1504	0
bin	1505	0
bin	1506	0
bin	1507	0
bin	1508	0
bin	1509	0
bin	1510	0
bin	1511	0
bin	1512	0
bin	1513	0
bin	1514	0
bin	1515	0
bin	1516	0
bin	1517	0
bin	1518	0
bin	1519	0
bin	1520	0
bin	1521	0
bin	1522	0
bin	1523	0
bin	1524	0
bin	1525	0
bin	1526	0
bin	1527	0
bin	1528	0
bin	1529	0
bin	1530	1
bin	1531	0
bin	1532	0
bin	1533	0
bin	1534	0
bin	1535	0
bin	1536	0
bin	1537	0
bin	1538	0
bin	1539	0
bin	1540	1
bin	1541	0
bin	1542	0
bin	1543	0
bin	1544	0
bin	1545	0
bin	1546	0
bin	1547	0
bin	1548	0
bin	1549	0
bin	1550	2
bin	1551	0
bin	1552	0
bin	1553	0
bin	1554	0
bin	1555	0
bin	1556	0
bin	1557	0
bin	1558	0
bin	1559	0
bin	1560	0
bin	1561	0
bin	1562	0
bin	1563	0
scalar Net5.rte[3].queue[2] busy:timeavg 0.0035781088326511
attr interpolationmode sample-hold
attr title "server busy state, timeavg"
scalar Net5.rte[3].queue[2] qlen:timeavg 0.0012026709833899
attr interpolationmode sample-hold
attr title "queue length, timeavg"
scalar Net5.rte[3].queue[2] qlen:max 3
attr interpolationmode sample-hold
attr title "queue length, max"
scalar Net5.rte[3].queue[2] drop:count 0
attr interpolationmode none
attr title "dropped packet byte length, count"
attr unit bytes
scalar Net5.rte[3].queue[2] drop:sum 0
attr interpolationmode none
attr title "dropped packet byte length, sum"
attr unit bytes
scalar Net5.rte[3].queue[3] rxBytes:count 43
attr interpolationmode none
attr title "received packet byte length, count"
attr unit bytes
scalar Net5.rte[3].queue[3] rxBytes:sum 64590
attr interpolationmode none
attr title "received packet byte length, sum"
attr unit bytes
statistic Net5.rte[3].queue[3] rxBytes:histogram
field count 43
field mean 1502.0930232558
field stddev 9.6505957217777
field min 1500
field max 1550
field sum 64590
field sqrsum 97024100
attr interpolationmode none
attr title "received packet byte length, histogram"
attr unit bytes
bin	-inf	0
bin	1487	0
bin	1488	0
bin	1489	0
bin	1490	0
bin	1491	0
bin	1492	0
bin	1493	0
bin	1494	0
bin	1495	0
bin	1496	0
bin	1497	0
bin	1498	0
bin	1499	0
bin	1500	41
bin	1501	0
bin	1502	0
bin	1503	0
bin	1504	0
bin	1505	0
bin	1506	0
bin	1507	0
bin	1508	0
bin	1509	0
bin	1510	0
bin	1511	0
bin	1512	0
bin	1513	0
bin	1514	0
bin	1515	0
bin	1516	0
bin	1517	0
bin	1518	0
bin	1519	0
bin	1520	0
bin	1521	0
bin	1522	0
bin	1523	0
bin	1524	0
bin	1525	0
bin	1526	0
bin	1527	0
bin	1528	0
bin	1529	0
bin	1530	0
bin	1531	0
bin	1532	0
bin	1533	0
bin	1534	0
bin	1535	0
bin	1536	0
bin	1537	0
bin	1538	0
bin	1539	0
bin	1540	1
bin	1541	0
bin	1542	0
bin	1543	0
bin	1544	0
bin	1545	0
bin	1546	0
bin	1547	0
bin	1548	0
bin	1549	0
bin	1550	1
bin	1551	0
bin	1552	0
bin	1553	0
bin	1554	0
bin	1555	0
bin	1556	0
bin	1557	0
bin	1558	0
bin	1559	0
bin	1560	0
bin	1561	0
bin	1562	0
bin	1563	0
scalar Net5.rte[3].queue[3] txBytes:count 38
attr interpolationmode none
attr title "transmitting packet byte length, count"
attr unit bytes
scalar Net5.rte[3].queue[3] txBytes:sum 57020
attr interpolationmode none
attr title "transmitting packet byte length, sum"
attr unit bytes
statistic Net5.rte[3].queue[3] txBytes:histogram
field count 38
field mean 1500.5263157895
field stddev 3.2444284225989
field min 1500
field max 1520
field sum 57020
field sqrsum 85560400
attr interpolationmode none
attr title "transmitting packet byte length, histogram"
attr unit bytes
bin	-inf	0
bin	1495	0
bin	1496	0
bin	1497	0
bin	1498	0
bin	1499	0
bin	1500	37
bin	1501	0
bin	1502	0
bin	1503	0
bin	1504	0
bin	1505	0
bin	1506	0
bin	1507	0
bin	1508	0
bin	1509	0
bin	1510	0
bin	1511	0
bin	1512	0
bin	1513	0
bin	1514	0
bin	1515	0
bin	1516	0
bin	1517	0
bin	1518	0
bin	1519	0
bin	1520	1
bin	1521	0
bin	1522	0
bin	1523	0
bin	1524	0
bin	1525	0
scalar Net5.rte[3].queue[3] busy:timeavg 0.0017192531022164
attr interpolationmode sample-hold
attr title "server busy state, timeavg"
scalar Net5.rte[3].queue[3] qlen:timeavg 0
attr interpolationmode sample-hold
attr title "queue length, timeavg"
scalar Net5.rte[3].queue[3] qlen:max 0
attr interpolationmode sample-hold
attr title "queue length, max"
scalar Net5.rte[3].queue[3] drop:count 0
attr interpolationmode none
attr title "dropped packet byte length, count"
attr unit bytes
scalar Net5.rte[3].queue[3] drop:sum 0
attr interpolationmode none
attr title "dropped packet byte length, sum"
attr unit bytes
scalar Net5.rte[4].app hopCount:mean 1.75
attr interpolationmode none
attr title "hop count of arrived packets, mean"
scalar Net5.rte[4].app hopCount:max 3
attr interpolationmode none
attr title "hop count of arrived packets, max"
scalar Net5.rte[4].app endToEndDelay:mean 0.18106416666786
attr interpolationmode none
attr title "end-to-end delay of arrived packets, mean"
attr unit s
scalar Net5.rte[4].app endToEndDelay:max 0.311666666669
attr interpolationmode none
attr title "end-to-end delay of arrived packets, max"
attr unit s
statistic Net5.rte[4].routing outputIf:histogram
field count 298
field mean 0.78859060402685
field stddev 1.2575445156872
field min -1
field max 2
field sum 235
field sqrsum 655
attr interpolationmode none
attr title "output interface for each routed packet, histogram"
bin	-inf	0
bin	-2	0
bin	-1	80
bin	0	33
bin	1	55
bin	2	130
bin	3	0
scalar Net5.rte[4].routing drop:count 0
attr interpolationmode none
attr title "dropped packet byte length, count"
attr unit bytes
scalar Net5.rte[4].routing drop:sum 0
attr interpolationmode none
attr title "dropped packet byte length, sum"
attr unit bytes
scalar Net5.rte[4].queue[0] rxBytes:count 64
attr interpolationmode none
attr title "received packet byte length, count"
attr unit bytes
scalar Net5.rte[4].queue[0] rxBytes:sum 96180
attr interpolationmode none
attr title "received packet byte length, sum"
attr unit bytes
statistic Net5.rte[4].queue[0] rxBytes:histogram
field count 64
field mean 1502.8125
field stddev 13.269938577148
field min 1500
field max 1590
field sum 96180
field sqrsum 144551600
attr interpolationmode none
attr title "received packet byte length, histogram"
attr unit bytes
bin	-inf	0
bin	1476	0
bin	1478	0
bin	1480	0
bin	1482	0
bin	1484	0
bin	1486	0
bin	1488	0
bin	1490	0
bin	1492	0
bin	1494	0
bin	1496	0
bin	1498	0
bin	1500	60
bin	1502	0
bin	1504	0
bin	1506	0
bin	1508	0
bin	1510	1
bin	1512	0
bin	1514	0
bin	1516	0
bin	1518	0
bin	1520	0
bin	1522	0
bin	1524	0
bin	1526	0
bin	1528	0
bin	1530	1
bin	1532	0
bin	1534	0
bin	1536	0
bin	1538	0
bin	1540	0
bin	1542	0
bin	1544	0
bin	1546	0
bin	1548	0
bin	1550	1
bin	1552	0
bin	1554	0
bin	1556	0
bin	1558	0
bin	1560	0
bin	1562	0
bin	1564	0
bin	1566	0
bin	1568	0
bin	1570	0
bin	1572	0
bin	1574	0
bin	1576	0
bin	1578	0
bin	1580	0
bin	1582	0
bin	1584	0
bin	1586	0
bin	1588	0
bin	1590	1
bin	1592	0
bin	1594	0
bin	1596	0
bin	1598	0
bin	1600	0
bin	1602	0
bin	1604	0
bin	1606	0
bin	1608	0
bin	1610	0
bin	1612	0
bin	1614	0
scalar Net5.rte[4].queue[0] txBytes:count 33
attr interpolationmode none
attr title "transmitting packet byte length, count"
attr unit bytes
scalar Net5.rte[4].queue[0] txBytes:sum 49500
attr interpolationmode none
attr title "transmitting packet byte length, sum"
attr unit bytes
statistic Net5.rte[4].queue[0] txBytes:histogram
field count 33
field mean 1500
field stddev 0
field min 1500
field max 1500
field sum 49500
field sqrsum 74250000
attr interpolationmode none
attr title "transmitting packet byte length, histogram"
attr unit bytes
bin	-inf	0
bin	1499	0
bin	1500	33
bin	1501	0
scalar Net5.rte[4].queue[0] busy:timeavg 0.0014925119003861
attr interpolationmode sample-hold
attr title "server busy state, timeavg"
scalar Net5.rte[4].queue[0] qlen:timeavg 0
attr interpolationmode sample-hold
attr title "queue length, timeavg"
scalar Net5.rte[4].queue[0] qlen:max 0
attr interpolationmode sample-hold
attr title "queue length, max"
scalar Net5.rte[4].queue[0] drop:count 0
attr interpolationmode none
attr title "dropped packet byte length, count"
attr unit bytes
scalar Net5.rte[4].queue[0] drop:sum 0
attr interpolationmode none
attr title "dropped packet byte length, sum"
attr unit bytes
scalar Net5.rte[4].queue[1] rxBytes:count 64
attr interpolationmode none
attr title "received packet byte length, count"
attr unit bytes
scalar Net5.rte[4].queue[1] rxBytes:sum 96050
attr interpolationmode none
attr title "received packet byte length, sum"
attr unit bytes
statistic Net5.rte[4].queue[1] rxBytes:histogram
field count 64
field mean 1500.78125
field stddev 5.1345970924297
field min 1500
field max 1540
field sum 96050
field sqrsum 144151700
attr interpolationmode none
attr title "received packet byte length, histogram"
attr unit bytes
bin	-inf	0
bin	1490	0
bin	1491	0
bin	1492	0
bin	1493	0
bin	1494	0
bin	1495	0
bin	1496	0
bin	1497	0
bin	1498	0
bin	1499	0
bin	1500	62
bin	1501	0
bin	1502	0
bin	1503	0
bin	1504	0
bin	1505	0
bin	1506	0
bin	1507	0
bin	1508	0
bin	1509	0
bin	1510	1
bin	1511	0
bin	1512	0
bin	1513	0
bin	1514	0
bin	1515	0
bin	1516	0
bin	1517	0
bin	1518	0
bin	1519	0
bin	1520	0
bin	1521	0
bin	1522	0
bin	1523	0
bin	1524	0
bin	1525	0
bin	1526	0
bin	1527	0
bin	1528	0
bin	1529	0
bin	1530	0
bin	1531	0
bin	1532	0
bin	1533	0
bin	1534	0
bin	1535	0
bin	1536	0
bin	1537	0
bin	1538	0
bin	1539	0
bin	1540	1
bin	1541	0
bin	1542	0
bin	1543	0
bin	1544	0
bin	1545	0
bin	1546	0
bin	1547	0
bin	1548	0
bin	1549	0
bin	1550	0
scalar Net5.rte[4].queue[1] txBytes:count 55
attr interpolationmode none
attr title "transmitting packet byte length, count"
attr unit bytes
scalar Net5.rte[4].queue[1] txBytes:sum 82670
attr interpolationmode none
attr title "transmitting packet byte length, sum"
attr unit bytes
statistic Net5.rte[4].queue[1] txBytes:histogram
field count 55
field mean 1503.0909090909
field stddev 12.303677148743
field min 1500
field max 1570
field sum 82670
field sqrsum 124268700
attr interpolationmode none
attr title "transmitting packet byte length, histogram"
attr unit bytes
bin	-inf	0
bin	1482	0
bin	1484	0
bin	1486	0
bin	1488	0
bin	1490	0
bin	1492	0
bin	1494	0
bin	1496	0
bin	1498	0
bin	1500	51
bin	1502	0
bin	1504	0
bin	1506	0
bin	1508	0
bin	1510	0
bin	1512	0
bin	1514	0
bin	1516	0
bin	1518	0
bin	1520	1
bin	1522	0
bin	1524	0
bin	1526	0
bin	1528	0
bin	1530	1
bin	1532	0
bin	1534	0
bin	1536	0
bin	1538	0
bin	1540	0
bin	1542	0
bin	1544	0
bin	1546	0
bin	1548	0
bin	1550	1
bin	1552	0
bin	1554	0
bin	1556	0
bin	1558	0
bin	1560	0
bin	1562	0
bin	1564	0
bin	1566	0
bin	1568	0
bin	1570	1
bin	1572	0
bin	1574	0
bin	1576	0
bin	1578	0
bin	1580	0
bin	1582	0
bin	1584	0
bin	1586	0
bin	1588	0
scalar Net5.rte[4].queue[1] busy:timeavg 0.0024926456323703
attr interpolationmode sample-hold
attr title "server busy state, timeavg"
scalar Net5.rte[4].queue[1] qlen:timeavg 0.001402056633696
attr interpolationmode sample-hold
attr title "queue length, timeavg"
scalar Net5.rte[4].queue[1] qlen:max 3
attr interpolationmode sample-hold
attr title "queue length, max"
scalar Net5.rte[4].queue[1] drop:count 0
attr interpolationmode none
attr title "dropped packet byte length, count"
attr unit bytes
scalar Net5.rte[4].queue[1] drop:sum 0
attr interpolationmode none
attr title "dropped packet byte length, sum"
attr unit bytes
scalar Net5.rte[4].queue[2] rxBytes:count 82
attr interpolationmode none
attr title "received packet byte length, count"
attr unit bytes
scalar Net5.rte[4].queue[2] rxBytes:sum 123090
attr interpolationmode none
attr title "received packet byte length, sum"
attr unit bytes
statistic Net5.rte[4].queue[2] rxBytes:histogram
field count 82
field mean 1501.0975609756
field stddev 6.2865911705478
field min 1500
field max 1550
field sum 123090
field sqrsum 184773300
attr interpolationmode none
attr title "received packet byte length, histogram"
attr unit bytes
bin	-inf	0
bin	1487	0
bin	1488	0
bin	1489	0
bin	1490	0
bin	1491	0
bin	1492	0
bin	1493	0
bin	1494	0
bin	1495	0
bin	1496	0
bin	1497	0
bin	1498	0
bin	1499	0
bin	1500	79
bin	1501	0
bin	1502	0
bin	1503	0
bin	1504	0
bin	1505	0
bin	1506	0
bin	1507	0
bin	1508	0
bin	1509	0
bin	1510	0
bin	1511	0
bin	1512	0
bin	1513	0
bin	1514	0
bin	1515	0
bin	1516	0
bin	1517	0
bin	1518	0
bin	1519	0
bin	1520	2
bin	1521	0
bin	1522	0
bin	1523	0
bin	1524	0
bin	1525	0
bin	1526	0
bin	1527	0
bin	1528	0
bin	1529	0
bin	1530	0
bin	1531	0
bin	1532	0
bin	1533	0
bin	1534	0
bin	1535	0
bin	1536	0
bin	1537	0
bin	1538	0
bin	1539	0
bin	1540	0
bin	1541	0
bin	1542	0
bin	1543	0
bin	1544	0
bin	1545	0
bin	1546	0
bin	1547	0
bin	1548	0
bin	1549	0
bin	1550	1
bin	1551	0
bin	1552	0
bin	1553	0
bin	1554	0
bin	1555	0
bin	1556	0
bin	1557	0
bin	1558	0
bin	1559	0
bin	1560	0
bin	1561	0
bin	1562	0
bin	1563	0
scalar Net5.rte[4].queue[2] txBytes:count 130
attr interpolationmode none
attr title "transmitting packet byte length, count"
attr unit bytes
scalar Net5.rte[4].queue[2] txBytes:sum 195230
attr interpolationmode none
attr title "transmitting packet byte length, sum"
attr unit bytes
statistic Net5.rte[4].queue[2] txBytes:histogram
field count 130
field mean 1501.7692307692
field stddev 9.9973162767312
field min 1500
field max 1590
field sum 195230
field sqrsum 293203300
attr interpolationmode none
attr title "transmitting packet byte length, histogram"
attr unit bytes
bin	-inf	0
bin	1476	0
bin	1478	0
bin	1480	0
bin	1482	0
bin	1484	0
bin	1486	0
bin	1488	0
bin	1490	0
bin	1492	0
bin	1494	0
bin	1496	0
bin	1498	0
bin	1500	124
bin	1502	0
bin	1504	0
bin	1506	0
bin	1508	0
bin	1510	2
bin	1512	0
bin	1514	0
bin	1516	0
bin	1518	0
bin	1520	0
bin	1522	0
bin	1524	0
bin	1526	0
bin	1528	0
bin	1530	1
bin	1532	0
bin	1534	0
bin	1536	0
bin	1538	0
bin	1540	1
bin	1542	0
bin	1544	0
bin	1546	0
bin	1548	0
bin	1550	1
bin	1552	0
bin	1554	0
bin	1556	0
bin	1558	0
bin	1560	0
bin	1562	0
bin	1564	0
bin	1566	0
bin	1568	0
bin	1570	0
bin	1572	0
bin	1574	0
bin	1576	0
bin	1578	0
bin	1580	0
bin	1582	0
bin	1584	0
bin	1586	0
bin	1588	0
bin	1590	1
bin	1592	0
bin	1594	0
bin	1596	0
bin	1598	0
bin	1600	0
bin	1602	0
bin	1604	0
bin	1606	0
bin	1608	0
bin	1610	0
bin	1612	0
bin	1614	0
scalar Net5.rte[4].queue[2] busy:timeavg 0.0058865272385903
attr interpolationmode sample-hold
attr title "server busy state, timeavg"
scalar Net5.rte[4].queue[2] qlen:timeavg 0.004070487001053
attr interpolationmode sample-hold
attr title "queue length, timeavg"
scalar Net5.rte[4].queue[2] qlen:max 5
attr interpolationmode sample-hold
attr title "queue length, max"
scalar Net5.rte[4].queue[2] drop:count 0
attr interpolationmode none
attr title "dropped packet byte length, count"
attr unit bytes
scalar Net5.rte[4].queue[2] drop:sum 0
attr interpolationmode none
attr title "dropped packet byte length, sum"
attr unit bytes
scalar Net5.rte[5].app hopCount:mean 1.6296296296296
attr interpolationmode none
attr title "hop count of arrived packets, mean"
scalar Net5.rte[5].app hopCount:max 2
attr interpolationmode none
attr title "hop count of arrived packets, max"
scalar Net5.rte[5].app endToEndDelay:mean 0.16951042524135
attr interpolationmode none
attr title "end-to-end delay of arrived packets, mean"
attr unit s
scalar Net5.rte[5].app endToEndDelay:max 0.211666666669
attr interpolationmode none
attr title "end-to-end delay of arrived packets, max"
attr unit s
statistic Net5.rte[5].routing outputIf:histogram
field count 451
field mean 0.8780487804878
field stddev 1.3681233561398
field min -1
field max 3
field sum 396
field sqrsum 1190
attr interpolationmode none
attr title "output interface for each routed packet, histogram"
bin	-inf	0
bin	-2	0
bin	-1	81
bin	0	130
bin	1	82
bin	2	79
bin	3	79
bin	4	0
scalar Net5.rte[5].routing drop:count 0
attr interpolationmode none
attr title "dropped packet byte length, count"
attr unit bytes
scalar Net5.rte[5].routing drop:sum 0
attr interpolationmode none
attr title "dropped packet byte length, sum"
attr unit bytes
scalar Net5.rte[5].queue[0] rxBytes:count 128
attr interpolationmode none
attr title "received packet byte length, count"
attr unit bytes
scalar Net5.rte[5].queue[0] rxBytes:sum 192180
attr interpolationmode none
attr title "received packet byte length, sum"
attr unit bytes
statistic Net5.rte[5].queue[0] rxBytes:histogram
field count 128
field mean 1501.40625
field stddev 8.1069985319383
field min 1500
field max 1570
field sum 192180
field sqrsum 288548600
attr interpolationmode none
attr title "received packet byte length, histogram"
attr unit bytes
bin	-inf	0
bin	1482	0
bin	1484	0
bin	1486	0
bin	1488	0
bin	1490	0
bin	1492	0
bin	1494	0
bin	1496	0
bin	1498	0
bin	1500	123
bin	1502	0
bin	1504	0
bin	1506	0
bin	1508	0
bin	1510	1
bin	1512	0
bin	1514	0
bin	1516	0
bin	1518	0
bin	1520	1
bin	1522	0
bin	1524	0
bin	1526	0
bin	1528	0
bin	1530	0
bin	1532	0
bin	1534	0
bin	1536	0
bin	1538	0
bin	1540	2
bin	1542	0
bin	1544	0
bin	1546	0
bin	1548	0
bin	1550	0
bin	1552	0
bin	1554	0
bin	1556	0
bin	1558	0
bin	1560	0
bin	1562	0
bin	1564	0
bin	1566	0
bin	1568	0
bin	1570	1
bin	1572	0
bin	1574	0
bin	1576	0
bin	1578	0
bin	1580	0
bin	1582	0
bin	1584	0
bin	1586	0
bin	1588	0
scalar Net5.rte[5].queue[0] txBytes:count 130
attr interpolationmode none
attr title "transmitting packet byte length, count"
attr unit bytes
scalar Net5.rte[5].queue[0] txBytes:sum 195120
attr interpolationmode none
attr title "transmitting packet byte length, sum"
attr unit bytes
statistic Net5.rte[5].queue[0] txBytes:histogram
field count 130
field mean 1500.9230769231
field stddev 6.4032639262066
field min 1500
field max 1550
field sum 195120
field sqrsum 292865400
attr interpolationmode none
attr title "transmitting packet byte length, histogram"
attr unit bytes
bin	-inf	0
bin	1495	0
bin	1496	0
bin	1497	0
bin	1498	0
bin	1499	0
bin	1500	127
bin	1501	0
bin	1502	0
bin	1503	0
bin	1504	0
bin	1505	0
bin	1506	0
bin	1507	0
bin	1508	0
bin	1509	0
bin	1510	0
bin	1511	0
bin	1512	0
bin	1513	0
bin	1514	0
bin	1515	0
bin	1516	0
bin	1517	0
bin	1518	0
bin	1519	0
bin	1520	1
bin	1521	0
bin	1522	0
bin	1523	0
bin	1524	0
bin	1525	0
bin	1526	0
bin	1527	0
bin	1528	0
bin	1529	0
bin	1530	0
bin	1531	0
bin	1532	0
bin	1533	0
bin	1534	0
bin	1535	0
bin	1536	0
bin	1537	0
bin	1538	0
bin	1539	0
bin	1540	0
bin	1541	0
bin	1542	0
bin	1543	0
bin	1544	0
bin	1545	0
bin	1546	0
bin	1547	0
bin	1548	0
bin	1549	0
bin	1550	2
bin	1551	0
scalar Net5.rte[5].queue[0] busy:timeavg 0.005883210545485
attr interpolationmode sample-hold
attr title "server busy state, timeavg"
scalar Net5.rte[5].queue[0] qlen:timeavg 0.0027780784998372
attr interpolationmode sample-hold
attr title "queue length, timeavg"
scalar Net5.rte[5].queue[0] qlen:max 5
attr interpolationmode sample-hold
attr title "queue length, max"
scalar Net5.rte[5].queue[0] drop:count 0
attr interpolationmode none
attr title "dropped packet byte length, count"
attr unit bytes
scalar Net5.rte[5].queue[0] drop:sum 0
attr interpolationmode none
attr title "dropped packet byte length, sum"
attr unit bytes
scalar Net5.rte[5].queue[1] rxBytes:count 130
attr interpolationmode none
attr title "received packet byte length, count"
attr unit bytes
scalar Net5.rte[5].queue[1] rxBytes:sum 195230
attr interpolationmode none
attr title "received packet byte length, sum"
attr unit bytes
statistic Net5.rte[5].queue[1] rxBytes:histogram
field count 130
field mean 1501.7692307692
field stddev 9.9973162767312
field min 1500
field max 1590
field sum 195230
field sqrsum 293203300
attr interpolationmode none
attr title "received packet byte length, histogram"
attr unit bytes
bin	-inf	0
bin	1476	0
bin	1478	0
bin	1480	0
bin	1482	0
bin	1484	0
bin	1486	0
bin	1488	0
bin	1490	0
bin	1492	0
bin	1494	0
bin	1496	0
bin	1498	0
bin	1500	124
bin	1502	0
bin	1504	0
bin	1506	0
bin	1508	0
bin	1510	2
bin	1512	0
bin	1514	0
bin	1516	0
bin	1518	0
bin	1520	0
bin	1522	0
bin	1524	0
bin	1526	0
bin	1528	0
bin	1530	1
bin	1532	0
bin	1534	0
bin	1536	0
bin	1538	0
bin	1540	1
bin	1542	0
bin	1544	0
bin	1546	0
bin	1548	0
bin	1550	1
bin	1552	0
bin	1554	0
bin	1556	0
bin	1558	0
bin	1560	0
bin	1562	0
bin	1564	0
bin	1566	0
bin	1568	0
bin	1570	0
bin	1572	0
bin	1574	0
bin	1576	0
bin	1578	0
bin	1580	0
bin	1582	0
bin	1584	0
bin	1586	0
bin	1588	0
bin	1590	1
bin	1592	0
bin	1594	0
bin	1596	0
bin	1598	0
bin	1600	0
bin	1602	0
bin	1604	0
bin	1606	0
bin	1608	0
bin	1610	0
bin	1612	0
bin	1614	0
scalar Net5.rte[5].queue[1] txBytes:count 82
attr interpolationmode none
attr title "transmitting packet byte length, count"
attr unit bytes
scalar Net5.rte[5].queue[1] txBytes:sum 123090
attr interpolationmode none
attr title "transmitting packet byte length, sum"
attr unit bytes
statistic Net5.rte[5].queue[1] txBytes:histogram
field count 82
field mean 1501.0975609756
field stddev 6.2865911705478
field min 1500
field max 1550
field sum 123090
field sqrsum 184773300
attr interpolationmode none
attr title "transmitting packet byte length, histogram"
attr unit bytes
bin	-inf	0
bin	1487	0
bin	1488	0
bin	1489	0
bin	1490	0
bin	1491	0
bin	1492	0
bin	1493	0
bin	1494	0
bin	1495	0
bin	1496	0
bin	1497	0
bin	1498	0
bin	1499	0
bin	1500	79
bin	1501	0
bin	1502	0
bin	1503	0
bin	1504	0
bin	1505	0
bin	1506	0
bin	1507	0
bin	1508	0
bin	1509	0
bin	1510	0
bin	1511	0
bin	1512	0
bin	1513	0
bin	1514	0
bin	1515	0
bin	1516	0
bin	1517	0
bin	1518	0
bin	1519	0
bin	1520	2
bin	1521	0
bin	1522	0
bin	1523	0
bin	1524	0
bin	1525	0
bin	1526	0
bin	1527	0
bin	1528	0
bin	1529	0
bin	1530	0
bin	1531	0
bin	1532	0
bin	1533	0
bin	1534	0
bin	1535	0
bin	1536	0
bin	1537	0
bin	1538	0
bin	1539	0
bin	1540	0
bin	1541	0
bin	1542	0
bin	1543	0
bin	1544	0
bin	1545	0
bin	1546	0
bin	1547	0
bin	1548	0
bin	1549	0
bin	1550	1
bin	1551	0
bin	1552	0
bin	1553	0
bin	1554	0
bin	1555	0
bin	1556	0
bin	1557	0
bin	1558	0
bin	1559	0
bin	1560	0
bin	1561	0
bin	1562	0
bin	1563	0
scalar Net5.rte[5].queue[1] busy:timeavg 0.0037113795922657
attr interpolationmode sample-hold
attr title "server busy state, timeavg"
scalar Net5.rte[5].queue[1] qlen:timeavg 0.001356829000351
attr interpolationmode sample-hold
attr title "queue length, timeavg"
scalar Net5.rte[5].queue[1] qlen:max 3
attr interpolationmode sample-hold
attr title "queue length, max"
scalar Net5.rte[5].queue[1] drop:count 0
attr interpolationmode none
attr title "dropped packet byte length, count"
attr unit bytes
scalar Net5.rte[5].queue[1] drop:sum 0
attr interpolationmode none
attr title "dropped packet byte length, sum"
attr unit bytes
scalar Net5.rte[5].queue[2] rxBytes:count 67
attr interpolationmode none
attr title "received packet byte length, count"
attr unit bytes
scalar Net5.rte[5].queue[2] rxBytes:sum 100570
attr interpolationmode none
attr title "received packet byte length, sum"
attr unit bytes
statistic Net5.rte[5].queue[2] rxBytes:histogram
field count 67
field mean 1501.0447761194
field stddev 6.5445624800342
field min 1500
field max 1550
field sum 100570
field sqrsum 150962900
attr interpolationmode none
attr title "received packet byte length, histogram"
attr unit bytes
bin	-inf	0
bin	1487	0
bin	1488	0
bin	1489	0
bin	1490	0
bin	1491	0
bin	1492	0
bin	1493	0
bin	1494	0
bin	1495	0
bin	1496	0
bin	1497	0
bin	1498	0
bin	1499	0
bin	1500	65
bin	1501	0
bin	1502	0
bin	1503	0
bin	1504	0
bin	1505	0
bin	1506	0
bin	1507	0
bin	1508	0
bin	1509	0
bin	1510	0
bin	1511	0
bin	1512	0
bin	1513	0
bin	1514	0
bin	1515	0
bin	1516	0
bin	1517	0
bin	1518	0
bin	1519	0
bin	1520	1
bin	1521	0
bin	1522	0
bin	1523	0
bin	1524	0
bin	1525	0
bin	1526	0
bin	1527	0
bin	1528	0
bin	1529	0
bin	1530	0
bin	1531	0
bin	1532	0
bin	1533	0
bin	1534	0
bin	1535	0
bin	1536	0
bin	1537	0
bin	1538	0
bin	1539	0
bin	1540	0
bin	1541	0
bin	1542	0
bin	1543	0
bin	1544	0
bin	1545	0
bin	1546	0
bin	1547	0
bin	1548	0
bin	1549	0
bin	1550	1
bin	1551	0
bin	1552	0
bin	1553	0
bin	1554	0
bin	1555	0
bin	1556	0
bin	1557	0
bin	1558	0
bin	1559	0
bin	1560	0
bin	1561	0
bin	1562	0
bin	1563	0
scalar Net5.rte[5].queue[2] txBytes:count 79
attr interpolationmode none
attr title "transmitting packet byte length, count"
attr unit bytes
scalar Net5.rte[5].queue[2] txBytes:sum 118590
attr interpolationmode none
attr title "transmitting packet byte length, sum"
attr unit bytes
statistic Net5.rte[5].queue[2] txBytes:histogram
field count 79
field mean 1501.1392405063
field stddev 6.4025919775668
field min 1500
field max 1540
field sum 118590
field sqrsum 178023300
attr interpolationmode none
attr title "transmitting packet byte length, histogram"
attr unit bytes
bin	-inf	0
bin	1490	0
bin	1491	0
bin	1492	0
bin	1493	0
bin	1494	0
bin	1495	0
bin	1496	0
bin	1497	0
bin	1498	0
bin	1499	0
bin	1500	76
bin	1501	0
bin	1502	0
bin	1503	0
bin	1504	0
bin	1505	0
bin	1506	0
bin	1507	0
bin	1508	0
bin	1509	0
bin	1510	1
bin	1511	0
bin	1512	0
bin	1513	0
bin	1514	0
bin	1515	0
bin	1516	0
bin	1517	0
bin	1518	0
bin	1519	0
bin	1520	0
bin	1521	0
bin	1522	0
bin	1523	0
bin	1524	0
bin	1525	0
bin	1526	0
bin	1527	0
bin	1528	0
bin	1529	0
bin	1530	0
bin	1531	0
bin	1532	0
bin	1533	0
bin	1534	0
bin	1535	0
bin	1536	0
bin	1537	0
bin	1538	0
bin	1539	0
bin	1540	2
bin	1541	0
bin	1542	0
bin	1543	0
bin	1544	0
bin	1545	0
bin	1546	0
bin	1547	0
bin	1548	0
bin	1549	0
bin	1550	0
scalar Net5.rte[5].queue[2] busy:timeavg 0.0035756966922306
attr interpolationmode sample-hold
attr title "server busy state, timeavg"
scalar Net5.rte[5].queue[2] qlen:timeavg 0
attr interpolationmode sample-hold
attr title "queue length, timeavg"
scalar Net5.rte[5].queue[2] qlen:max 0
attr interpolationmode sample-hold
attr title "queue length, max"
scalar Net5.rte[5].queue[2] drop:count 0
attr interpolationmode none
attr title "dropped packet byte length, count"
attr unit bytes
scalar Net5.rte[5].queue[2] drop:sum 0
attr interpolationmode none
attr title "dropped packet byte length, sum"
attr unit bytes
scalar Net5.rte[5].queue[3] rxBytes:count 47
attr interpolationmode none
attr title "received packet byte length, count"
attr unit bytes
scalar Net5.rte[5].queue[3] rxBytes:sum 70520
attr interpolationmode none
attr title "received packet byte length, sum"
attr unit bytes
statistic Net5.rte[5].queue[3] rxBytes:histogram
field count 47
field mean 1500.4255319149
field stddev 2.9172998299626
field min 1500
field max 1520
field sum 70520
field sqrsum 105810400
attr interpolationmode none
attr title "received packet byte length, histogram"
attr unit bytes
bin	-inf	0
bin	1495	0
bin	1496	0
bin	1497	0
bin	1498	0
bin	1499	0
bin	1500	46
bin	1501	0
bin	1502	0
bin	1503	0
bin	1504	0
bin	1505	0
bin	1506	0
bin	1507	0
bin	1508	0
bin	1509	0
bin	1510	0
bin	1511	0
bin	1512	0
bin	1513	0
bin	1514	0
bin	1515	0
bin	1516	0
bin	1517	0
bin	1518	0
bin	1519	0
bin	1520	1
bin	1521	0
bin	1522	0
bin	1523	0
bin	1524	0
bin	1525	0
scalar Net5.rte[5].queue[3] txBytes:count 79
attr interpolationmode none
attr title "transmitting packet byte length, count"
attr unit bytes
scalar Net5.rte[5].queue[3] txBytes:sum 118600
attr interpolationmode none
attr title "transmitting packet byte length, sum"
attr unit bytes
statistic Net5.rte[5].queue[3] txBytes:histogram
field count 79
field mean 1501.2658227848
field stddev 8.5285476275121
field min 1500
field max 1570
field sum 118600
field sqrsum 178055800
attr interpolationmode none
attr title "transmitting packet byte length, histogram"
attr unit bytes
bin	-inf	0
bin	1482	0
bin	1484	0
bin	1486	0
bin	1488	0
bin	1490	0
bin	1492	0
bin	1494	0
bin	1496	0
bin	1498	0
bin	1500	77
bin	1502	0
bin	1504	0
bin	1506	0
bin	1508	0
bin	1510	0
bin	1512	0
bin	1514	0
bin	1516	0
bin	1518	0
bin	1520	0
bin	1522	0
bin	1524	0
bin	1526	0
bin	1528	0
bin	1530	1
bin	1532	0
bin	1534	0
bin	1536	0
bin	1538	0
bin	1540	0
bin	1542	0
bin	1544	0
bin	1546	0
bin	1548	0
bin	1550	0
bin	1552	0
bin	1554	0
bin	1556	0
bin	1558	0
bin	1560	0
bin	1562	0
bin	1564	0
bin	1566	0
bin	1568	0
bin	1570	1
bin	1572	0
bin	1574	0
bin	1576	0
bin	1578	0
bin	1580	0
bin	1582	0
bin	1584	0
bin	1586	0
bin	1588	0
scalar Net5.rte[5].queue[3] busy:timeavg 0.0035759982097832
attr interpolationmode sample-hold
attr title "server busy state, timeavg"
scalar Net5.rte[5].queue[3] qlen:timeavg 4.5227633345033e-005
attr interpolationmode sample-hold
attr title "queue length, timeavg"
scalar Net5.rte[5].queue[3] qlen:max 1
attr interpolationmode sample-hold
attr title "queue length, max"
scalar Net5.rte[5].queue[3] drop:count 0
attr interpolationmode none
attr title "dropped packet byte length, count"
attr unit bytes
scalar Net5.rte[5].queue[3] drop:sum 0
attr interpolationmode none
attr title "dropped packet byte length, sum"
attr unit bytes
scalar Net5.rte[6].app hopCount:mean 2.5443037974684
attr interpolationmode none
attr title "hop count of arrived packets, mean"
scalar Net5.rte[6].app hopCount:max 3
attr interpolationmode none
attr title "hop count of arrived packets, max"
scalar Net5.rte[6].app endToEndDelay:mean 0.2631471167387
attr interpolationmode none
attr title "end-to-end delay of arrived packets, mean"
attr unit s
scalar Net5.rte[6].app endToEndDelay:max 0.315000000003
attr interpolationmode none
attr title "end-to-end delay of arrived packets, max"
attr unit s
statistic Net5.rte[6].routing outputIf:histogram
field count 146
field mean -0.54109589041096
field stddev 0.50002361777002
field min -1
field max 0
field sum -79
field sqrsum 79
attr interpolationmode none
attr title "output interface for each routed packet, histogram"
bin	-inf	0
bin	-2	0
bin	-1	79
bin	0	67
bin	1	0
scalar Net5.rte[6].routing drop:count 0
attr interpolationmode none
attr title "dropped packet byte length, count"
attr unit bytes
scalar Net5.rte[6].routing drop:sum 0
attr interpolationmode none
attr title "dropped packet byte length, sum"
attr unit bytes
scalar Net5.rte[6].queue[0] rxBytes:count 79
attr interpolationmode none
attr title "received packet byte length, count"
attr unit bytes
scalar Net5.rte[6].queue[0] rxBytes:sum 118590
attr interpolationmode none
attr title "received packet byte length, sum"
attr unit bytes
statistic Net5.rte[6].queue[0] rxBytes:histogram
field count 79
field mean 1501.1392405063
field stddev 6.4025919775668
field min 1500
field max 1540
field sum 118590
field sqrsum 178023300
attr interpolationmode none
attr title "received packet byte length, histogram"
attr unit bytes
bin	-inf	0
bin	1490	0
bin	1491	0
bin	1492	0
bin	1493	0
bin	1494	0
bin	1495	0
bin	1496	0
bin	1497	0
bin	1498	0
bin	1499	0
bin	1500	76
bin	1501	0
bin	1502	0
bin	1503	0
bin	1504	0
bin	1505	0
bin	1506	0
bin	1507	0
bin	1508	0
bin	1509	0
bin	1510	1
bin	1511	0
bin	1512	0
bin	1513	0
bin	1514	0
bin	1515	0
bin	1516	0
bin	1517	0
bin	1518	0
bin	1519	0
bin	1520	0
bin	1521	0
bin	1522	0
bin	1523	0
bin	1524	0
bin	1525	0
bin	1526	0
bin	1527	0
bin	1528	0
bin	1529	0
bin	1530	0
bin	1531	0
bin	1532	0
bin	1533	0
bin	1534	0
bin	1535	0
bin	1536	0
bin	1537	0
bin	1538	0
bin	1539	0
bin	1540	2
bin	1541	0
bin	1542	0
bin	1543	0
bin	1544	0
bin	1545	0
bin	1546	0
bin	1547	0
bin	1548	0
bin	1549	0
bin	1550	0
scalar Net5.rte[6].queue[0] txBytes:count 67
attr interpolationmode none
attr title "transmitting packet byte length, count"
attr unit bytes
scalar Net5.rte[6].queue[0] txBytes:sum 100570
attr interpolationmode none
attr title "transmitting packet byte length, sum"
attr unit bytes
statistic Net5.rte[6].queue[0] txBytes:histogram
field count 67
field mean 1501.0447761194
field stddev 6.5445624800342
field min 1500
field max 1550
field sum 100570
field sqrsum 150962900
attr interpolationmode none
attr title "transmitting packet byte length, histogram"
attr unit bytes
bin	-inf	0
bin	1487	0
bin	1488	0
bin	1489	0
bin	1490	0
bin	1491	0
bin	1492	0
bin	1493	0
bin	1494	0
bin	1495	0
bin	1496	0
bin	1497	0
bin	1498	0
bin	1499	0
bin	1500	65
bin	1501	0
bin	1502	0
bin	1503	0
bin	1504	0
bin	1505	0
bin	1506	0
bin	1507	0
bin	1508	0
bin	1509	0
bin	1510	0
bin	1511	0
bin	1512	0
bin	1513	0
bin	1514	0
bin	1515	0
bin	1516	0
bin	1517	0
bin	1518	0
bin	1519	0
bin	1520	1
bin	1521	0
bin	1522	0
bin	1523	0
bin	1524	0
bin	1525	0
bin	1526	0
bin	1527	0
bin	1528	0
bin	1529	0
bin	1530	0
bin	1531	0
bin	1532	0
bin	1533	0
bin	1534	0
bin	1535	0
bin	1536	0
bin	1537	0
bin	1538	0
bin	1539	0
bin	1540	0
bin	1541	0
bin	1542	0
bin	1543	0
bin	1544	0
bin	1545	0
bin	1546	0
bin	1547	0
bin	1548	0
bin	1549	0
bin	1550	1
bin	1551	0
bin	1552	0
bin	1553	0
bin	1554	0
bin	1555	0
bin	1556	0
bin	1557	0
bin	1558	0
bin	1559	0
bin	1560	0
bin	1561	0
bin	1562	0
bin	1563	0
scalar Net5.rte[6].queue[0] busy:timeavg 0.0030323620569851
attr interpolationmode sample-hold
attr title "server busy state, timeavg"
scalar Net5.rte[6].queue[0] qlen:timeavg 0.010990314902843
attr interpolationmode sample-hold
attr title "queue length, timeavg"
scalar Net5.rte[6].queue[0] qlen:max 9
attr interpolationmode sample-hold
attr title "queue length, max"
scalar Net5.rte[6].queue[0] drop:count 0
attr interpolationmode none
attr title "dropped packet byte length, count"
attr unit bytes
scalar Net5.rte[6].queue[0] drop:sum 0
attr interpolationmode none
attr title "dropped packet byte length, sum"
attr unit bytes
scalar Net5.rte[7].app hopCount:mean 2.5189873417722
attr interpolationmode none
attr title "hop count of arrived packets, mean"
scalar Net5.rte[7].app hopCount:max 3
attr interpolationmode none
attr title "hop count of arrived packets, max"
scalar Net5.rte[7].app endToEndDelay:mean 0.26200843882054
attr interpolationmode none
attr title "end-to-end delay of arrived packets, mean"
attr unit s
scalar Net5.rte[7].app endToEndDelay:max 0.31666666667
attr interpolationmode none
attr title "end-to-end delay of arrived packets, max"
attr unit s
statistic Net5.rte[7].routing outputIf:histogram
field count 126
field mean -0.62698412698413
field stddev 0.48553684900946
field min -1
field max 0
field sum -79
field sqrsum 79
attr interpolationmode none
attr title "output interface for each routed packet, histogram"
bin	-inf	0
bin	-2	0
bin	-1	79
bin	0	47
bin	1	0
scalar Net5.rte[7].routing drop:count 0
attr interpolationmode none
attr title "dropped packet byte length, count"
attr unit bytes
scalar Net5.rte[7].routing drop:sum 0
attr interpolationmode none
attr title "dropped packet byte length, sum"
attr unit bytes
scalar Net5.rte[7].queue[0] rxBytes:count 79
attr interpolationmode none
attr title "received packet byte length, count"
attr unit bytes
scalar Net5.rte[7].queue[0] rxBytes:sum 118600
attr interpolationmode none
attr title "received packet byte length, sum"
attr unit bytes
statistic Net5.rte[7].queue[0] rxBytes:histogram
field count 79
field mean 1501.2658227848
field stddev 8.5285476275121
field min 1500
field max 1570
field sum 118600
field sqrsum 178055800
attr interpolationmode none
attr title "received packet byte length, histogram"
attr unit bytes
bin	-inf	0
bin	1482	0
bin	1484	0
bin	1486	0
bin	1488	0
bin	1490	0
bin	1492	0
bin	1494	0
bin	1496	0
bin	1498	0
bin	1500	77
bin	1502	0
bin	1504	0
bin	1506	0
bin	1508	0
bin	1510	0
bin	1512	0
bin	1514	0
bin	1516	0
bin	1518	0
bin	1520	0
bin	1522	0
bin	1524	0
bin	1526	0
bin	1528	0
bin	1530	1
bin	1532	0
bin	1534	0
bin	1536	0
bin	1538	0
bin	1540	0
bin	1542	0
bin	1544	0
bin	1546	0
bin	1548	0
bin	1550	0
bin	1552	0
bin	1554	0
bin	1556	0
bin	1558	0
bin	1560	0
bin	1562	0
bin	1564	0
bin	1566	0
bin	1568	0
bin	1570	1
bin	1572	0
bin	1574	0
bin	1576	0
bin	1578	0
bin	1580	0
bin	1582	0
bin	1584	0
bin	1586	0
bin	1588	0
scalar Net5.rte[7].queue[0] txBytes:count 47
attr interpolationmode none
attr title "transmitting packet byte length, count"
attr unit bytes
scalar Net5.rte[7].queue[0] txBytes:sum 70520
attr interpolationmode none
attr title "transmitting packet byte length, sum"
attr unit bytes
statistic Net5.rte[7].queue[0] txBytes:histogram
field count 47
field mean 1500.4255319149
field stddev 2.9172998299626
field min 1500
field max 1520
field sum 70520
field sqrsum 105810400
attr interpolationmode none
attr title "transmitting packet byte length, histogram"
attr unit bytes
bin	-inf	0
bin	1495	0
bin	1496	0
bin	1497	0
bin	1498	0
bin	1499	0
bin	1500	46
bin	1501	0
bin	1502	0
bin	1503	0
bin	1504	0
bin	1505	0
bin	1506	0
bin	1507	0
bin	1508	0
bin	1509	0
bin	1510	0
bin	1511	0
bin	1512	0
bin	1513	0
bin	1514	0
bin	1515	0
bin	1516	0
bin	1517	0
bin	1518	0
bin	1519	0
bin	1520	1
bin	1521	0
bin	1522	0
bin	1523	0
bin	1524	0
bin	1525	0
scalar Net5.rte[7].queue[0] busy:timeavg 0.0021263018023217
attr interpolationmode sample-hold
attr title "server busy state, timeavg"
scalar Net5.rte[7].queue[0] qlen:timeavg 0.0077339253020007
attr interpolationmode sample-hold
attr title "queue length, timeavg"
scalar Net5.rte[7].queue[0] qlen:max 9
attr interpolationmode sample-hold
attr title "queue length, max"
scalar Net5.rte[7].queue[0] drop:count 0
attr interpolationmode none
attr title "dropped packet byte length, count"
attr unit bytes
scalar Net5.rte[7].queue[0] drop:sum 0
attr interpolationmode none
attr title "dropped packet byte length, sum"
attr unit bytes
scalar Net5.rte[8].app hopCount:mean 2.0238095238095
attr interpolationmode none
attr title "hop count of arrived packets, mean"
scalar Net5.rte[8].app hopCount:max 3
attr interpolationmode none
attr title "hop count of arrived packets, max"
scalar Net5.rte[8].app endToEndDelay:mean 0.2101253612243
attr interpolationmode none
attr title "end-to-end delay of arrived packets, mean"
attr unit s
scalar Net5.rte[8].app endToEndDelay:max 0.318333333337
attr interpolationmode none
attr title "end-to-end delay of arrived packets, max"
attr unit s
statistic Net5.rte[8].routing outputIf:histogram
field count 268
field mean 0.0074626865671642
field stddev 0.79790238724814
field min -1
field max 1
field sum 2
field sqrsum 170
attr interpolationmode none
attr title "output interface for each routed packet, histogram"
bin	-inf	0
bin	-2	0
bin	-1	84
bin	0	98
bin	1	86
bin	2	0
scalar Net5.rte[8].routing drop:count 0
attr interpolationmode none
attr title "dropped packet byte length, count"
attr unit bytes
scalar Net5.rte[8].routing drop:sum 0
attr interpolationmode none
attr title "dropped packet byte length, sum"
attr unit bytes
scalar Net5.rte[8].queue[0] rxBytes:count 67
attr interpolationmode none
attr title "received packet byte length, count"
attr unit bytes
scalar Net5.rte[8].queue[0] rxBytes:sum 100870
attr interpolationmode none
attr title "received packet byte length, sum"
attr unit bytes
statistic Net5.rte[8].queue[0] rxBytes:histogram
field count 67
field mean 1505.5223880597
field stddev 17.257723970297
field min 1500
field max 1570
field sum 100870
field sqrsum 151881700
attr interpolationmode none
attr title "received packet byte length, histogram"
attr unit bytes
bin	-inf	0
bin	1482	0
bin	1484	0
bin	1486	0
bin	1488	0
bin	1490	0
bin	1492	0
bin	1494	0
bin	1496	0
bin	1498	0
bin	1500	60
bin	1502	0
bin	1504	0
bin	1506	0
bin	1508	0
bin	1510	0
bin	1512	0
bin	1514	0
bin	1516	0
bin	1518	0
bin	1520	1
bin	1522	0
bin	1524	0
bin	1526	0
bin	1528	0
bin	1530	0
bin	1532	0
bin	1534	0
bin	1536	0
bin	1538	0
bin	1540	1
bin	1542	0
bin	1544	0
bin	1546	0
bin	1548	0
bin	1550	2
bin	1552	0
bin	1554	0
bin	1556	0
bin	1558	0
bin	1560	0
bin	1562	0
bin	1564	0
bin	1566	0
bin	1568	0
bin	1570	3
bin	1572	0
bin	1574	0
bin	1576	0
bin	1578	0
bin	1580	0
bin	1582	0
bin	1584	0
bin	1586	0
bin	1588	0
scalar Net5.rte[8].queue[0] txBytes:count 98
attr interpolationmode none
attr title "transmitting packet byte length, count"
attr unit bytes
scalar Net5.rte[8].queue[0] txBytes:sum 147230
attr interpolationmode none
attr title "transmitting packet byte length, sum"
attr unit bytes
statistic Net5.rte[8].queue[0] txBytes:histogram
field count 98
field mean 1502.3469387755
field stddev 12.25174259923
field min 1500
field max 1600
field sum 147230
field sqrsum 221205100
attr interpolationmode none
attr title "transmitting packet byte length, histogram"
attr unit bytes
bin	-inf	0
bin	1474	0
bin	1476	0
bin	1478	0
bin	1480	0
bin	1482	0
bin	1484	0
bin	1486	0
bin	1488	0
bin	1490	0
bin	1492	0
bin	1494	0
bin	1496	0
bin	1498	0
bin	1500	93
bin	1502	0
bin	1504	0
bin	1506	0
bin	1508	0
bin	1510	1
bin	1512	0
bin	1514	0
bin	1516	0
bin	1518	0
bin	1520	0
bin	1522	0
bin	1524	0
bin	1526	0
bin	1528	0
bin	1530	1
bin	1532	0
bin	1534	0
bin	1536	0
bin	1538	0
bin	1540	1
bin	1542	0
bin	1544	0
bin	1546	0
bin	1548	0
bin	1550	1
bin	1552	0
bin	1554	0
bin	1556	0
bin	1558	0
bin	1560	0
bin	1562	0
bin	1564	0
bin	1566	0
bin	1568	0
bin	1570	0
bin	1572	0
bin	1574	0
bin	1576	0
bin	1578	0
bin	1580	0
bin	1582	0
bin	1584	0
bin	1586	0
bin	1588	0
bin	1590	0
bin	1592	0
bin	1594	0
bin	1596	0
bin	1598	0
bin	1600	1
bin	1602	0
bin	1604	0
bin	1606	0
bin	1608	0
bin	1610	0
bin	1612	0
bin	1614	0
bin	1616	0
bin	1618	0
bin	1620	0
bin	1622	0
bin	1624	0
bin	1626	0
scalar Net5.rte[8].queue[0] busy:timeavg 0.0044392429715492
attr interpolationmode sample-hold
attr title "server busy state, timeavg"
scalar Net5.rte[8].queue[0] qlen:timeavg 0.0038895764676729
attr interpolationmode sample-hold
attr title "queue length, timeavg"
scalar Net5.rte[8].queue[0] qlen:max 4
attr interpolationmode sample-hold
attr title "queue length, max"
scalar Net5.rte[8].queue[0] drop:count 0
attr interpolationmode none
attr title "dropped packet byte length, count"
attr unit bytes
scalar Net5.rte[8].queue[0] drop:sum 0
attr interpolationmode none
attr title "dropped packet byte length, sum"
attr unit bytes
scalar Net5.rte[8].queue[1] rxBytes:count 79
attr interpolationmode none
attr title "received packet byte length, count"
attr unit bytes
scalar Net5.rte[8].queue[1] rxBytes:sum 118670
attr interpolationmode none
attr title "received packet byte length, sum"
attr unit bytes
statistic Net5.rte[8].queue[1] rxBytes:histogram
field count 79
field mean 1502.1518987342
field stddev 9.5636713897508
field min 1500
field max 1550
field sum 118670
field sqrsum 178267500
attr interpolationmode none
attr title "received packet byte length, histogram"
attr unit bytes
bin	-inf	0
bin	1487	0
bin	1488	0
bin	1489	0
bin	1490	0
bin	1491	0
bin	1492	0
bin	1493	0
bin	1494	0
bin	1495	0
bin	1496	0
bin	1497	0
bin	1498	0
bin	1499	0
bin	1500	75
bin	1501	0
bin	1502	0
bin	1503	0
bin	1504	0
bin	1505	0
bin	1506	0
bin	1507	0
bin	1508	0
bin	1509	0
bin	1510	0
bin	1511	0
bin	1512	0
bin	1513	0
bin	1514	0
bin	1515	0
bin	1516	0
bin	1517	0
bin	1518	0
bin	1519	0
bin	1520	0
bin	1521	0
bin	1522	0
bin	1523	0
bin	1524	0
bin	1525	0
bin	1526	0
bin	1527	0
bin	1528	0
bin	1529	0
bin	1530	1
bin	1531	0
bin	1532	0
bin	1533	0
bin	1534	0
bin	1535	0
bin	1536	0
bin	1537	0
bin	1538	0
bin	1539	0
bin	1540	1
bin	1541	0
bin	1542	0
bin	1543	0
bin	1544	0
bin	1545	0
bin	1546	0
bin	1547	0
bin	1548	0
bin	1549	0
bin	1550	2
bin	1551	0
bin	1552	0
bin	1553	0
bin	1554	0
bin	1555	0
bin	1556	0
bin	1557	0
bin	1558	0
bin	1559	0
bin	1560	0
bin	1561	0
bin	1562	0
bin	1563	0
scalar Net5.rte[8].queue[1] txBytes:count 86
attr interpolationmode none
attr title "transmitting packet byte length, count"
attr unit bytes
scalar Net5.rte[8].queue[1] txBytes:sum 129230
attr interpolationmode none
attr title "transmitting packet byte length, sum"
attr unit bytes
statistic Net5.rte[8].queue[1] txBytes:histogram
field count 86
field mean 1502.6744186047
field stddev 12.501709869376
field min 1500
field max 1570
field sum 129230
field sqrsum 194203900
attr interpolationmode none
attr title "transmitting packet byte length, histogram"
attr unit bytes
bin	-inf	0
bin	1482	0
bin	1484	0
bin	1486	0
bin	1488	0
bin	1490	0
bin	1492	0
bin	1494	0
bin	1496	0
bin	1498	0
bin	1500	82
bin	1502	0
bin	1504	0
bin	1506	0
bin	1508	0
bin	1510	0
bin	1512	0
bin	1514	0
bin	1516	0
bin	1518	0
bin	1520	0
bin	1522	0
bin	1524	0
bin	1526	0
bin	1528	0
bin	1530	0
bin	1532	0
bin	1534	0
bin	1536	0
bin	1538	0
bin	1540	1
bin	1542	0
bin	1544	0
bin	1546	0
bin	1548	0
bin	1550	1
bin	1552	0
bin	1554	0
bin	1556	0
bin	1558	0
bin	1560	0
bin	1562	0
bin	1564	0
bin	1566	0
bin	1568	0
bin	1570	2
bin	1572	0
bin	1574	0
bin	1576	0
bin	1578	0
bin	1580	0
bin	1582	0
bin	1584	0
bin	1586	0
bin	1588	0
scalar Net5.rte[8].queue[1] busy:timeavg 0.0038965113713817
attr interpolationmode sample-hold
attr title "server busy state, timeavg"
scalar Net5.rte[8].queue[1] qlen:timeavg 0.0055629989014391
attr interpolationmode sample-hold
attr title "queue length, timeavg"
scalar Net5.rte[8].queue[1] qlen:max 5
attr interpolationmode sample-hold
attr title "queue length, max"
scalar Net5.rte[8].queue[1] drop:count 0
attr interpolationmode none
attr title "dropped packet byte length, count"
attr unit bytes
scalar Net5.rte[8].queue[1] drop:sum 0
attr interpolationmode none
attr title "dropped packet byte length, sum"
attr unit bytes
scalar Net5.rte[9].app hopCount:mean 1.962962962963
attr interpolationmode none
attr title "hop count of arrived packets, mean"
scalar Net5.rte[9].app hopCount:max 3
attr interpolationmode none
attr title "hop count of arrived packets, max"
scalar Net5.rte[9].app endToEndDelay:mean 0.20467015935547
attr interpolationmode none
attr title "end-to-end delay of arrived packets, mean"
attr unit s
scalar Net5.rte[9].app endToEndDelay:max 0.326666666672
attr interpolationmode none
attr title "end-to-end delay of arrived packets, max"
attr unit s
statistic Net5.rte[9].routing outputIf:histogram
field count 160
field mean -0.2375
field stddev 0.85036063381789
field min -1
field max 1
field sum -38
field sqrsum 124
attr interpolationmode none
attr title "output interface for each routed packet, histogram"
bin	-inf	0
bin	-2	0
bin	-1	81
bin	0	36
bin	1	43
bin	2	0
scalar Net5.rte[9].routing drop:count 0
attr interpolationmode none
attr title "dropped packet byte length, count"
attr unit bytes
scalar Net5.rte[9].routing drop:sum 0
attr interpolationmode none
attr title "dropped packet byte length, sum"
attr unit bytes
scalar Net5.rte[9].queue[0] rxBytes:count 43
attr interpolationmode none
attr title "received packet byte length, count"
attr unit bytes
scalar Net5.rte[9].queue[0] rxBytes:sum 64630
attr interpolationmode none
attr title "received packet byte length, sum"
attr unit bytes
statistic Net5.rte[9].queue[0] rxBytes:histogram
field count 43
field mean 1503.023255814
field stddev 15.816640381475
field min 1500
field max 1600
field sum 64630
field sqrsum 97150900
attr interpolationmode none
attr title "received packet byte length, histogram"
attr unit bytes
bin	-inf	0
bin	1474	0
bin	1476	0
bin	1478	0
bin	1480	0
bin	1482	0
bin	1484	0
bin	1486	0
bin	1488	0
bin	1490	0
bin	1492	0
bin	1494	0
bin	1496	0
bin	1498	0
bin	1500	41
bin	1502	0
bin	1504	0
bin	1506	0
bin	1508	0
bin	1510	0
bin	1512	0
bin	1514	0
bin	1516	0
bin	1518	0
bin	1520	0
bin	1522	0
bin	1524	0
bin	1526	0
bin	1528	0
bin	1530	1
bin	1532	0
bin	1534	0
bin	1536	0
bin	1538	0
bin	1540	0
bin	1542	0
bin	1544	0
bin	1546	0
bin	1548	0
bin	1550	0
bin	1552	0
bin	1554	0
bin	1556	0
bin	1558	0
bin	1560	0
bin	1562	0
bin	1564	0
bin	1566	0
bin	1568	0
bin	1570	0
bin	1572	0
bin	1574	0
bin	1576	0
bin	1578	0
bin	1580	0
bin	1582	0
bin	1584	0
bin	1586	0
bin	1588	0
bin	1590	0
bin	1592	0
bin	1594	0
bin	1596	0
bin	1598	0
bin	1600	1
bin	1602	0
bin	1604	0
bin	1606	0
bin	1608	0
bin	1610	0
bin	1612	0
bin	1614	0
bin	1616	0
bin	1618	0
bin	1620	0
bin	1622	0
bin	1624	0
bin	1626	0
scalar Net5.rte[9].queue[0] txBytes:count 36
attr interpolationmode none
attr title "transmitting packet byte length, count"
attr unit bytes
scalar Net5.rte[9].queue[0] txBytes:sum 54020
attr interpolationmode none
attr title "transmitting packet byte length, sum"
attr unit bytes
statistic Net5.rte[9].queue[0] txBytes:histogram
field count 36
field mean 1500.5555555556
field stddev 3.3333333333617
field min 1500
field max 1520
field sum 54020
field sqrsum 81060400
attr interpolationmode none
attr title "transmitting packet byte length, histogram"
attr unit bytes
bin	-inf	0
bin	1495	0
bin	1496	0
bin	1497	0
bin	1498	0
bin	1499	0
bin	1500	35
bin	1501	0
bin	1502	0
bin	1503	0
bin	1504	0
bin	1505	0
bin	1506	0
bin	1507	0
bin	1508	0
bin	1509	0
bin	1510	0
bin	1511	0
bin	1512	0
bin	1513	0
bin	1514	0
bin	1515	0
bin	1516	0
bin	1517	0
bin	1518	0
bin	1519	0
bin	1520	1
bin	1521	0
bin	1522	0
bin	1523	0
bin	1524	0
bin	1525	0
scalar Net5.rte[9].queue[0] busy:timeavg 0.0016287978355263
attr interpolationmode sample-hold
attr title "server busy state, timeavg"
scalar Net5.rte[9].queue[0] qlen:timeavg 0.0022613816672517
attr interpolationmode sample-hold
attr title "queue length, timeavg"
scalar Net5.rte[9].queue[0] qlen:max 4
attr interpolationmode sample-hold
attr title "queue length, max"
scalar Net5.rte[9].queue[0] drop:count 0
attr interpolationmode none
attr title "dropped packet byte length, count"
attr unit bytes
scalar Net5.rte[9].queue[0] drop:sum 0
attr interpolationmode none
attr title "dropped packet byte length, sum"
attr unit bytes
scalar Net5.rte[9].queue[1] rxBytes:count 38
attr interpolationmode none
attr title "received packet byte length, count"
attr unit bytes
scalar Net5.rte[9].queue[1] rxBytes:sum 57020
attr interpolationmode none
attr title "received packet byte length, sum"
attr unit bytes
statistic Net5.rte[9].queue[1] rxBytes:histogram
field count 38
field mean 1500.5263157895
field stddev 3.2444284225989
field min 1500
field max 1520
field sum 57020
field sqrsum 85560400
attr interpolationmode none
attr title "received packet byte length, histogram"
attr unit bytes
bin	-inf	0
bin	1495	0
bin	1496	0
bin	1497	0
bin	1498	0
bin	1499	0
bin	1500	37
bin	1501	0
bin	1502	0
bin	1503	0
bin	1504	0
bin	1505	0
bin	1506	0
bin	1507	0
bin	1508	0
bin	1509	0
bin	1510	0
bin	1511	0
bin	1512	0
bin	1513	0
bin	1514	0
bin	1515	0
bin	1516	0
bin	1517	0
bin	1518	0
bin	1519	0
bin	1520	1
bin	1521	0
bin	1522	0
bin	1523	0
bin	1524	0
bin	1525	0
scalar Net5.rte[9].queue[1] txBytes:count 43
attr interpolationmode none
attr title "transmitting packet byte length, count"
attr unit bytes
scalar Net5.rte[9].queue[1] txBytes:sum 64590
attr interpolationmode none
attr title "transmitting packet byte length, sum"
attr unit bytes
statistic Net5.rte[9].queue[1] txBytes:histogram
field count 43
field mean 1502.0930232558
field stddev 9.6505957217777
field min 1500
field max 1550
field sum 64590
field sqrsum 97024100
attr interpolationmode none
attr title "transmitting packet byte length, histogram"
attr unit bytes
bin	-inf	0
bin	1487	0
bin	1488	0
bin	1489	0
bin	1490	0
bin	1491	0
bin	1492	0
bin	1493	0
bin	1494	0
bin	1495	0
bin	1496	0
bin	1497	0
bin	1498	0
bin	1499	0
bin	1500	41
bin	1501	0
bin	1502	0
bin	1503	0
bin	1504	0
bin	1505	0
bin	1506	0
bin	1507	0
bin	1508	0
bin	1509	0
bin	1510	0
bin	1511	0
bin	1512	0
bin	1513	0
bin	1514	0
bin	1515	0
bin	1516	0
bin	1517	0
bin	1518	0
bin	1519	0
bin	1520	0
bin	1521	0
bin	1522	0
bin	1523	0
bin	1524	0
bin	1525	0
bin	1526	0
bin	1527	0
bin	1528	0
bin	1529	0
bin	1530	0
bin	1531	0
bin	1532	0
bin	1533	0
bin	1534	0
bin	1535	0
bin	1536	0
bin	1537	0
bin	1538	0
bin	1539	0
bin	1540	1
bin	1541	0
bin	1542	0
bin	1543	0
bin	1544	0
bin	1545	0
bin	1546	0
bin	1547	0
bin	1548	0
bin	1549	0
bin	1550	1
bin	1551	0
bin	1552	0
bin	1553	0
bin	1554	0
bin	1555	0
bin	1556	0
bin	1557	0
bin	1558	0
bin	1559	0
bin	1560	0
bin	1561	0
bin	1562	0
bin	1563	0
scalar Net5.rte[9].queue[1] busy:timeavg 0.0019475018918094
attr interpolationmode sample-hold
attr title "server busy state, timeavg"
scalar Net5.rte[9].queue[1] qlen:timeavg 0.0033920725008775
attr interpolationmode sample-hold
attr title "queue length, timeavg"
scalar Net5.rte[9].queue[1] qlen:max 5
attr interpolationmode sample-hold
attr title "queue length, max"
scalar Net5.rte[9].queue[1] drop:count 0
attr interpolationmode none
attr title "dropped packet byte length, count"
attr unit bytes
scalar Net5.rte[9].queue[1] drop:sum 0
attr interpolationmode none
attr title "dropped packet byte length, sum"
attr unit bytes

