version 2
run General-0-20190709-11:49:13-24528
attr configname General
attr datetime 20190709-11:49:13
attr experiment General
attr inifile omnetpp.ini
attr iterationvars ""
attr iterationvarsf ""
attr measurement ""
attr network networks.Net5
attr processid 24528
attr repetition 0
attr replication #0
attr resultdir results
attr runnumber 0
attr seedset 0
param **.totalNodes 100
param **.appType "\"App\""
param **.app.packetLength "1500 bytes"
param **.destAddresses "\"0\""
param **.sendIaTime "uniform(5s, 10s)"
param **.sendIaTimeEvil 10ms
param Net5.delay 100ms
param Net5.datarate 7200kbps

scalar Net5.rte[0].app hopCount:mean 3.3333333333333
attr interpolationmode none
attr title "hop count of arrived packets, mean"
scalar Net5.rte[0].app hopCount:max 6
attr interpolationmode none
attr title "hop count of arrived packets, max"
scalar Net5.rte[0].app endToEndDelay:mean 0.33949249420867
attr interpolationmode none
attr title "end-to-end delay of arrived packets, mean"
attr unit s
scalar Net5.rte[0].app endToEndDelay:max 0.617908013868
attr interpolationmode none
attr title "end-to-end delay of arrived packets, max"
attr unit s
statistic Net5.rte[0].routing outputIf:histogram
field count 2643
field mean 0.12220961029134
field stddev 1.1694972450418
field min -1
field max 2
field sum 323
field sqrsum 3653
attr interpolationmode none
attr title "output interface for each routed packet, histogram"
bin	-inf	0
bin	-2	0
bin	-1	1149
bin	0	538
bin	1	440
bin	2	516
bin	3	0
scalar Net5.rte[0].routing drop:count 0
attr interpolationmode none
attr title "dropped packet byte length, count"
attr unit bytes
scalar Net5.rte[0].routing drop:sum 0
attr interpolationmode none
attr title "dropped packet byte length, sum"
attr unit bytes
scalar Net5.rte[0].queue[0] rxBytes:count 611
attr interpolationmode none
attr title "received packet byte length, count"
attr unit bytes
scalar Net5.rte[0].queue[0] rxBytes:sum 916540
attr interpolationmode none
attr title "received packet byte length, sum"
attr unit bytes
statistic Net5.rte[0].queue[0] rxBytes:histogram
field count 611
field mean 1500.0654664484
field stddev 1.6182267881814
field min 1500
field max 1540
field sum 916540
field sqrsum 1374871600
attr interpolationmode none
attr title "received packet byte length, histogram"
attr unit bytes
bin	-inf	0
bin	1499	0
bin	1500	610
bin	1501	0
bin	1502	0
bin	1503	0
bin	1504	0
bin	1505	0
bin	1506	0
bin	1507	0
bin	1508	0
bin	1509	0
bin	1510	0
bin	1511	0
bin	1512	0
bin	1513	0
bin	1514	0
bin	1515	0
bin	1516	0
bin	1517	0
bin	1518	0
bin	1519	0
bin	1520	0
bin	1521	0
bin	1522	0
bin	1523	0
bin	1524	0
bin	1525	0
bin	1526	0
bin	1527	0
bin	1528	0
bin	1529	0
bin	1530	0
bin	1531	0
bin	1532	0
bin	1533	0
bin	1534	0
bin	1535	0
bin	1536	0
bin	1537	0
bin	1538	0
bin	1539	0
bin	1540	1
bin	1541	0
scalar Net5.rte[0].queue[0] txBytes:count 538
attr interpolationmode none
attr title "transmitting packet byte length, count"
attr unit bytes
scalar Net5.rte[0].queue[0] txBytes:sum 807060
attr interpolationmode none
attr title "transmitting packet byte length, sum"
attr unit bytes
statistic Net5.rte[0].queue[0] txBytes:histogram
field count 538
field mean 1500.1115241636
field stddev 1.8274283862138
field min 1500
field max 1530
field sum 807060
field sqrsum 1210681800
attr interpolationmode none
attr title "transmitting packet byte length, histogram"
attr unit bytes
bin	-inf	0
bin	1499	0
bin	1500	536
bin	1501	0
bin	1502	0
bin	1503	0
bin	1504	0
bin	1505	0
bin	1506	0
bin	1507	0
bin	1508	0
bin	1509	0
bin	1510	0
bin	1511	0
bin	1512	0
bin	1513	0
bin	1514	0
bin	1515	0
bin	1516	0
bin	1517	0
bin	1518	0
bin	1519	0
bin	1520	0
bin	1521	0
bin	1522	0
bin	1523	0
bin	1524	0
bin	1525	0
bin	1526	0
bin	1527	0
bin	1528	0
bin	1529	0
bin	1530	2
bin	1531	0
scalar Net5.rte[0].queue[0] busy:timeavg 0.014716953514246
attr interpolationmode sample-hold
attr title "server busy state, timeavg"
scalar Net5.rte[0].queue[0] qlen:timeavg 0.071448684506535
attr interpolationmode sample-hold
attr title "queue length, timeavg"
scalar Net5.rte[0].queue[0] qlen:max 29
attr interpolationmode sample-hold
attr title "queue length, max"
scalar Net5.rte[0].queue[0] drop:count 0
attr interpolationmode none
attr title "dropped packet byte length, count"
attr unit bytes
scalar Net5.rte[0].queue[0] drop:sum 0
attr interpolationmode none
attr title "dropped packet byte length, sum"
attr unit bytes
scalar Net5.rte[0].queue[1] rxBytes:count 539
attr interpolationmode none
attr title "received packet byte length, count"
attr unit bytes
scalar Net5.rte[0].queue[1] rxBytes:sum 808580
attr interpolationmode none
attr title "received packet byte length, sum"
attr unit bytes
statistic Net5.rte[0].queue[1] rxBytes:histogram
field count 539
field mean 1500.1484230056
field stddev 1.9223427851893
field min 1500
field max 1530
field sum 808580
field sqrsum 1212992000
attr interpolationmode none
attr title "received packet byte length, histogram"
attr unit bytes
bin	-inf	0
bin	1497	0
bin	1498	0
bin	1499	0
bin	1500	535
bin	1501	0
bin	1502	0
bin	1503	0
bin	1504	0
bin	1505	0
bin	1506	0
bin	1507	0
bin	1508	0
bin	1509	0
bin	1510	2
bin	1511	0
bin	1512	0
bin	1513	0
bin	1514	0
bin	1515	0
bin	1516	0
bin	1517	0
bin	1518	0
bin	1519	0
bin	1520	0
bin	1521	0
bin	1522	0
bin	1523	0
bin	1524	0
bin	1525	0
bin	1526	0
bin	1527	0
bin	1528	0
bin	1529	0
bin	1530	2
bin	1531	0
scalar Net5.rte[0].queue[1] txBytes:count 440
attr interpolationmode none
attr title "transmitting packet byte length, count"
attr unit bytes
scalar Net5.rte[0].queue[1] txBytes:sum 660130
attr interpolationmode none
attr title "transmitting packet byte length, sum"
attr unit bytes
statistic Net5.rte[0].queue[1] txBytes:histogram
field count 440
field mean 1500.2954545455
field stddev 5.7395226737004
field min 1500
field max 1620
field sum 660130
field sqrsum 990404500
attr interpolationmode none
attr title "transmitting packet byte length, histogram"
attr unit bytes
bin	-inf	0
bin	1499	438
bin	1502	0
bin	1505	0
bin	1508	1
bin	1511	0
bin	1514	0
bin	1517	0
bin	1520	0
bin	1523	0
bin	1526	0
bin	1529	0
bin	1532	0
bin	1535	0
bin	1538	0
bin	1541	0
bin	1544	0
bin	1547	0
bin	1550	0
bin	1553	0
bin	1556	0
bin	1559	0
bin	1562	0
bin	1565	0
bin	1568	0
bin	1571	0
bin	1574	0
bin	1577	0
bin	1580	0
bin	1583	0
bin	1586	0
bin	1589	0
bin	1592	0
bin	1595	0
bin	1598	0
bin	1601	0
bin	1604	0
bin	1607	0
bin	1610	0
bin	1613	0
bin	1616	0
bin	1619	1
bin	1622	0
scalar Net5.rte[0].queue[1] busy:timeavg 0.012037645928878
attr interpolationmode sample-hold
attr title "server busy state, timeavg"
scalar Net5.rte[0].queue[1] qlen:timeavg 0.028663297427638
attr interpolationmode sample-hold
attr title "queue length, timeavg"
scalar Net5.rte[0].queue[1] qlen:max 19
attr interpolationmode sample-hold
attr title "queue length, max"
scalar Net5.rte[0].queue[1] drop:count 0
attr interpolationmode none
attr title "dropped packet byte length, count"
attr unit bytes
scalar Net5.rte[0].queue[1] drop:sum 0
attr interpolationmode none
attr title "dropped packet byte length, sum"
attr unit bytes
scalar Net5.rte[0].queue[2] rxBytes:count 880
attr interpolationmode none
attr title "received packet byte length, count"
attr unit bytes
scalar Net5.rte[0].queue[2] rxBytes:sum 1320150
attr interpolationmode none
attr title "received packet byte length, sum"
attr unit bytes
statistic Net5.rte[0].queue[2] rxBytes:histogram
field count 880
field mean 1500.1704545455
field stddev 4.1136350065713
field min 1500
field max 1620
field sum 1320150
field sqrsum 1980464900
attr interpolationmode none
attr title "received packet byte length, histogram"
attr unit bytes
bin	-inf	0
bin	1499	877
bin	1502	0
bin	1505	0
bin	1508	1
bin	1511	0
bin	1514	0
bin	1517	0
bin	1520	1
bin	1523	0
bin	1526	0
bin	1529	0
bin	1532	0
bin	1535	0
bin	1538	0
bin	1541	0
bin	1544	0
bin	1547	0
bin	1550	0
bin	1553	0
bin	1556	0
bin	1559	0
bin	1562	0
bin	1565	0
bin	1568	0
bin	1571	0
bin	1574	0
bin	1577	0
bin	1580	0
bin	1583	0
bin	1586	0
bin	1589	0
bin	1592	0
bin	1595	0
bin	1598	0
bin	1601	0
bin	1604	0
bin	1607	0
bin	1610	0
bin	1613	0
bin	1616	0
bin	1619	1
bin	1622	0
scalar Net5.rte[0].queue[2] txBytes:count 516
attr interpolationmode none
attr title "transmitting packet byte length, count"
attr unit bytes
scalar Net5.rte[0].queue[2] txBytes:sum 774170
attr interpolationmode none
attr title "transmitting packet byte length, sum"
attr unit bytes
statistic Net5.rte[0].queue[2] txBytes:histogram
field count 516
field mean 1500.3294573643
field stddev 3.5917900581009
field min 1500
field max 1550
field sum 774170
field sqrsum 1161516700
attr interpolationmode none
attr title "transmitting packet byte length, histogram"
attr unit bytes
bin	-inf	0
bin	1499	0
bin	1500	511
bin	1501	0
bin	1502	0
bin	1503	0
bin	1504	0
bin	1505	0
bin	1506	0
bin	1507	0
bin	1508	0
bin	1509	0
bin	1510	1
bin	1511	0
bin	1512	0
bin	1513	0
bin	1514	0
bin	1515	0
bin	1516	0
bin	1517	0
bin	1518	0
bin	1519	0
bin	1520	0
bin	1521	0
bin	1522	0
bin	1523	0
bin	1524	0
bin	1525	0
bin	1526	0
bin	1527	0
bin	1528	0
bin	1529	0
bin	1530	1
bin	1531	0
bin	1532	0
bin	1533	0
bin	1534	0
bin	1535	0
bin	1536	0
bin	1537	0
bin	1538	0
bin	1539	0
bin	1540	2
bin	1541	0
bin	1542	0
bin	1543	0
bin	1544	0
bin	1545	0
bin	1546	0
bin	1547	0
bin	1548	0
bin	1549	0
bin	1550	1
bin	1551	0
scalar Net5.rte[0].queue[2] busy:timeavg 0.014117195626232
attr interpolationmode sample-hold
attr title "server busy state, timeavg"
scalar Net5.rte[0].queue[2] qlen:timeavg 0.20377909389862
attr interpolationmode sample-hold
attr title "queue length, timeavg"
scalar Net5.rte[0].queue[2] qlen:max 50
attr interpolationmode sample-hold
attr title "queue length, max"
scalar Net5.rte[0].queue[2] drop:count 0
attr interpolationmode none
attr title "dropped packet byte length, count"
attr unit bytes
scalar Net5.rte[0].queue[2] drop:sum 0
attr interpolationmode none
attr title "dropped packet byte length, sum"
attr unit bytes
scalar Net5.rte[1].app hopCount:mean 2.9314830875976
attr interpolationmode none
attr title "hop count of arrived packets, mean"
scalar Net5.rte[1].app hopCount:max 5
attr interpolationmode none
attr title "hop count of arrived packets, max"
scalar Net5.rte[1].app endToEndDelay:mean 0.29902089977868
attr interpolationmode none
attr title "end-to-end delay of arrived packets, mean"
attr unit s
scalar Net5.rte[1].app endToEndDelay:max 0.546241347207
attr interpolationmode none
attr title "end-to-end delay of arrived packets, max"
attr unit s
statistic Net5.rte[1].routing outputIf:histogram
field count 3719
field mean 0.78515730034956
field stddev 1.5208202434026
field min -1
field max 3
field sum 2920
field sqrsum 10892
attr interpolationmode none
attr title "output interface for each routed packet, histogram"
bin	-inf	0
bin	-2	0
bin	-1	1153
bin	0	596
bin	1	597
bin	2	643
bin	3	730
bin	4	0
scalar Net5.rte[1].routing drop:count 0
attr interpolationmode none
attr title "dropped packet byte length, count"
attr unit bytes
scalar Net5.rte[1].routing drop:sum 0
attr interpolationmode none
attr title "dropped packet byte length, sum"
attr unit bytes
scalar Net5.rte[1].queue[0] rxBytes:count 727
attr interpolationmode none
attr title "received packet byte length, count"
attr unit bytes
scalar Net5.rte[1].queue[0] rxBytes:sum 1090630
attr interpolationmode none
attr title "received packet byte length, sum"
attr unit bytes
statistic Net5.rte[1].queue[0] rxBytes:histogram
field count 727
field mean 1500.1788170564
field stddev 3.2091367888276
field min 1500
field max 1570
field sum 1090630
field sqrsum 1636147500
attr interpolationmode none
attr title "received packet byte length, histogram"
attr unit bytes
bin	-inf	0
bin	1499	0
bin	1500	724
bin	1501	0
bin	1502	0
bin	1503	0
bin	1504	0
bin	1505	0
bin	1506	0
bin	1507	0
bin	1508	0
bin	1509	0
bin	1510	1
bin	1511	0
bin	1512	0
bin	1513	0
bin	1514	0
bin	1515	0
bin	1516	0
bin	1517	0
bin	1518	0
bin	1519	0
bin	1520	0
bin	1521	0
bin	1522	0
bin	1523	0
bin	1524	0
bin	1525	0
bin	1526	0
bin	1527	0
bin	1528	0
bin	1529	0
bin	1530	0
bin	1531	0
bin	1532	0
bin	1533	0
bin	1534	0
bin	1535	0
bin	1536	0
bin	1537	0
bin	1538	0
bin	1539	0
bin	1540	0
bin	1541	0
bin	1542	0
bin	1543	0
bin	1544	0
bin	1545	0
bin	1546	0
bin	1547	0
bin	1548	0
bin	1549	0
bin	1550	1
bin	1551	0
bin	1552	0
bin	1553	0
bin	1554	0
bin	1555	0
bin	1556	0
bin	1557	0
bin	1558	0
bin	1559	0
bin	1560	0
bin	1561	0
bin	1562	0
bin	1563	0
bin	1564	0
bin	1565	0
bin	1566	0
bin	1567	0
bin	1568	0
bin	1569	0
bin	1570	1
bin	1571	0
scalar Net5.rte[1].queue[0] txBytes:count 596
attr interpolationmode none
attr title "transmitting packet byte length, count"
attr unit bytes
scalar Net5.rte[1].queue[0] txBytes:sum 894180
attr interpolationmode none
attr title "transmitting packet byte length, sum"
attr unit bytes
statistic Net5.rte[1].queue[0] txBytes:histogram
field count 596
field mean 1500.3020134228
field stddev 3.5136319364477
field min 1500
field max 1560
field sum 894180
field sqrsum 1341547400
attr interpolationmode none
attr title "transmitting packet byte length, histogram"
attr unit bytes
bin	-inf	0
bin	1499	0
bin	1500	591
bin	1501	0
bin	1502	0
bin	1503	0
bin	1504	0
bin	1505	0
bin	1506	0
bin	1507	0
bin	1508	0
bin	1509	0
bin	1510	0
bin	1511	0
bin	1512	0
bin	1513	0
bin	1514	0
bin	1515	0
bin	1516	0
bin	1517	0
bin	1518	0
bin	1519	0
bin	1520	1
bin	1521	0
bin	1522	0
bin	1523	0
bin	1524	0
bin	1525	0
bin	1526	0
bin	1527	0
bin	1528	0
bin	1529	0
bin	1530	2
bin	1531	0
bin	1532	0
bin	1533	0
bin	1534	0
bin	1535	0
bin	1536	0
bin	1537	0
bin	1538	0
bin	1539	0
bin	1540	1
bin	1541	0
bin	1542	0
bin	1543	0
bin	1544	0
bin	1545	0
bin	1546	0
bin	1547	0
bin	1548	0
bin	1549	0
bin	1550	0
bin	1551	0
bin	1552	0
bin	1553	0
bin	1554	0
bin	1555	0
bin	1556	0
bin	1557	0
bin	1558	0
bin	1559	0
bin	1560	1
bin	1561	0
scalar Net5.rte[1].queue[0] busy:timeavg 0.016305609859677
attr interpolationmode sample-hold
attr title "server busy state, timeavg"
scalar Net5.rte[1].queue[0] qlen:timeavg 0.0092681076548514
attr interpolationmode sample-hold
attr title "queue length, timeavg"
scalar Net5.rte[1].queue[0] qlen:max 9
attr interpolationmode sample-hold
attr title "queue length, max"
scalar Net5.rte[1].queue[0] drop:count 0
attr interpolationmode none
attr title "dropped packet byte length, count"
attr unit bytes
scalar Net5.rte[1].queue[0] drop:sum 0
attr interpolationmode none
attr title "dropped packet byte length, sum"
attr unit bytes
scalar Net5.rte[1].queue[1] rxBytes:count 861
attr interpolationmode none
attr title "received packet byte length, count"
attr unit bytes
scalar Net5.rte[1].queue[1] rxBytes:sum 1291640
attr interpolationmode none
attr title "received packet byte length, sum"
attr unit bytes
statistic Net5.rte[1].queue[1] rxBytes:histogram
field count 861
field mean 1500.162601626
field stddev 2.848344229828
field min 1500
field max 1560
field sum 1291640
field sqrsum 1937677000
attr interpolationmode none
attr title "received packet byte length, histogram"
attr unit bytes
bin	-inf	0
bin	1499	0
bin	1500	858
bin	1501	0
bin	1502	0
bin	1503	0
bin	1504	0
bin	1505	0
bin	1506	0
bin	1507	0
bin	1508	0
bin	1509	0
bin	1510	0
bin	1511	0
bin	1512	0
bin	1513	0
bin	1514	0
bin	1515	0
bin	1516	0
bin	1517	0
bin	1518	0
bin	1519	0
bin	1520	0
bin	1521	0
bin	1522	0
bin	1523	0
bin	1524	0
bin	1525	0
bin	1526	0
bin	1527	0
bin	1528	0
bin	1529	0
bin	1530	1
bin	1531	0
bin	1532	0
bin	1533	0
bin	1534	0
bin	1535	0
bin	1536	0
bin	1537	0
bin	1538	0
bin	1539	0
bin	1540	0
bin	1541	0
bin	1542	0
bin	1543	0
bin	1544	0
bin	1545	0
bin	1546	0
bin	1547	0
bin	1548	0
bin	1549	0
bin	1550	1
bin	1551	0
bin	1552	0
bin	1553	0
bin	1554	0
bin	1555	0
bin	1556	0
bin	1557	0
bin	1558	0
bin	1559	0
bin	1560	1
bin	1561	0
scalar Net5.rte[1].queue[1] txBytes:count 597
attr interpolationmode none
attr title "transmitting packet byte length, count"
attr unit bytes
scalar Net5.rte[1].queue[1] txBytes:sum 895770
attr interpolationmode none
attr title "transmitting packet byte length, sum"
attr unit bytes
statistic Net5.rte[1].queue[1] txBytes:histogram
field count 597
field mean 1500.4522613065
field stddev 5.522663714979
field min 1500
field max 1590
field sum 895770
field sqrsum 1344078300
attr interpolationmode none
attr title "transmitting packet byte length, histogram"
attr unit bytes
bin	-inf	0
bin	1499	592
bin	1501	0
bin	1503	0
bin	1505	0
bin	1507	0
bin	1509	0
bin	1511	0
bin	1513	0
bin	1515	0
bin	1517	0
bin	1519	1
bin	1521	0
bin	1523	0
bin	1525	0
bin	1527	0
bin	1529	1
bin	1531	0
bin	1533	0
bin	1535	0
bin	1537	0
bin	1539	0
bin	1541	0
bin	1543	0
bin	1545	0
bin	1547	0
bin	1549	1
bin	1551	0
bin	1553	0
bin	1555	0
bin	1557	0
bin	1559	0
bin	1561	0
bin	1563	0
bin	1565	0
bin	1567	0
bin	1569	0
bin	1571	0
bin	1573	0
bin	1575	0
bin	1577	0
bin	1579	1
bin	1581	0
bin	1583	0
bin	1585	0
bin	1587	0
bin	1589	1
bin	1591	0
scalar Net5.rte[1].queue[1] busy:timeavg 0.016334603932114
attr interpolationmode sample-hold
attr title "server busy state, timeavg"
scalar Net5.rte[1].queue[1] qlen:timeavg 0.093993201107102
attr interpolationmode sample-hold
attr title "queue length, timeavg"
scalar Net5.rte[1].queue[1] qlen:max 28
attr interpolationmode sample-hold
attr title "queue length, max"
scalar Net5.rte[1].queue[1] drop:count 0
attr interpolationmode none
attr title "dropped packet byte length, count"
attr unit bytes
scalar Net5.rte[1].queue[1] drop:sum 0
attr interpolationmode none
attr title "dropped packet byte length, sum"
attr unit bytes
scalar Net5.rte[1].queue[2] rxBytes:count 548
attr interpolationmode none
attr title "received packet byte length, count"
attr unit bytes
scalar Net5.rte[1].queue[2] rxBytes:sum 822170
attr interpolationmode none
attr title "received packet byte length, sum"
attr unit bytes
statistic Net5.rte[1].queue[2] rxBytes:histogram
field count 548
field mean 1500.3102189781
field stddev 4.111619681512
field min 1500
field max 1580
field sum 822170
field sqrsum 1233519300
attr interpolationmode none
attr title "received packet byte length, histogram"
attr unit bytes
bin	-inf	0
bin	1499	0
bin	1500	544
bin	1501	0
bin	1502	0
bin	1503	0
bin	1504	0
bin	1505	0
bin	1506	0
bin	1507	0
bin	1508	0
bin	1509	0
bin	1510	0
bin	1511	0
bin	1512	0
bin	1513	0
bin	1514	0
bin	1515	0
bin	1516	0
bin	1517	0
bin	1518	0
bin	1519	0
bin	1520	1
bin	1521	0
bin	1522	0
bin	1523	0
bin	1524	0
bin	1525	0
bin	1526	0
bin	1527	0
bin	1528	0
bin	1529	0
bin	1530	1
bin	1531	0
bin	1532	0
bin	1533	0
bin	1534	0
bin	1535	0
bin	1536	0
bin	1537	0
bin	1538	0
bin	1539	0
bin	1540	1
bin	1541	0
bin	1542	0
bin	1543	0
bin	1544	0
bin	1545	0
bin	1546	0
bin	1547	0
bin	1548	0
bin	1549	0
bin	1550	0
bin	1551	0
bin	1552	0
bin	1553	0
bin	1554	0
bin	1555	0
bin	1556	0
bin	1557	0
bin	1558	0
bin	1559	0
bin	1560	0
bin	1561	0
bin	1562	0
bin	1563	0
bin	1564	0
bin	1565	0
bin	1566	0
bin	1567	0
bin	1568	0
bin	1569	0
bin	1570	0
bin	1571	0
bin	1572	0
bin	1573	0
bin	1574	0
bin	1575	0
bin	1576	0
bin	1577	0
bin	1578	0
bin	1579	0
bin	1580	1
bin	1581	0
scalar Net5.rte[1].queue[2] txBytes:count 643
attr interpolationmode none
attr title "transmitting packet byte length, count"
attr unit bytes
scalar Net5.rte[1].queue[2] txBytes:sum 964570
attr interpolationmode none
attr title "transmitting packet byte length, sum"
attr unit bytes
statistic Net5.rte[1].queue[2] txBytes:histogram
field count 643
field mean 1500.1088646967
field stddev 2.7605305235586
field min 1500
field max 1570
field sum 964570
field sqrsum 1446964900
attr interpolationmode none
attr title "transmitting packet byte length, histogram"
attr unit bytes
bin	-inf	0
bin	1499	0
bin	1500	642
bin	1501	0
bin	1502	0
bin	1503	0
bin	1504	0
bin	1505	0
bin	1506	0
bin	1507	0
bin	1508	0
bin	1509	0
bin	1510	0
bin	1511	0
bin	1512	0
bin	1513	0
bin	1514	0
bin	1515	0
bin	1516	0
bin	1517	0
bin	1518	0
bin	1519	0
bin	1520	0
bin	1521	0
bin	1522	0
bin	1523	0
bin	1524	0
bin	1525	0
bin	1526	0
bin	1527	0
bin	1528	0
bin	1529	0
bin	1530	0
bin	1531	0
bin	1532	0
bin	1533	0
bin	1534	0
bin	1535	0
bin	1536	0
bin	1537	0
bin	1538	0
bin	1539	0
bin	1540	0
bin	1541	0
bin	1542	0
bin	1543	0
bin	1544	0
bin	1545	0
bin	1546	0
bin	1547	0
bin	1548	0
bin	1549	0
bin	1550	0
bin	1551	0
bin	1552	0
bin	1553	0
bin	1554	0
bin	1555	0
bin	1556	0
bin	1557	0
bin	1558	0
bin	1559	0
bin	1560	0
bin	1561	0
bin	1562	0
bin	1563	0
bin	1564	0
bin	1565	0
bin	1566	0
bin	1567	0
bin	1568	0
bin	1569	0
bin	1570	1
bin	1571	0
scalar Net5.rte[1].queue[2] busy:timeavg 0.017589190210438
attr interpolationmode sample-hold
attr title "server busy state, timeavg"
scalar Net5.rte[1].queue[2] qlen:timeavg 0.074897936534325
attr interpolationmode sample-hold
attr title "queue length, timeavg"
scalar Net5.rte[1].queue[2] qlen:max 24
attr interpolationmode sample-hold
attr title "queue length, max"
scalar Net5.rte[1].queue[2] drop:count 0
attr interpolationmode none
attr title "dropped packet byte length, count"
attr unit bytes
scalar Net5.rte[1].queue[2] drop:sum 0
attr interpolationmode none
attr title "dropped packet byte length, sum"
attr unit bytes
scalar Net5.rte[1].queue[3] rxBytes:count 665
attr interpolationmode none
attr title "received packet byte length, count"
attr unit bytes
scalar Net5.rte[1].queue[3] rxBytes:sum 997650
attr interpolationmode none
attr title "received packet byte length, sum"
attr unit bytes
statistic Net5.rte[1].queue[3] rxBytes:histogram
field count 665
field mean 1500.2255639098
field stddev 3.8546962074636
field min 1500
field max 1590
field sum 997650
field sqrsum 1496709900
attr interpolationmode none
attr title "received packet byte length, histogram"
attr unit bytes
bin	-inf	0
bin	1499	662
bin	1501	0
bin	1503	0
bin	1505	0
bin	1507	0
bin	1509	0
bin	1511	0
bin	1513	0
bin	1515	0
bin	1517	0
bin	1519	0
bin	1521	0
bin	1523	0
bin	1525	0
bin	1527	0
bin	1529	2
bin	1531	0
bin	1533	0
bin	1535	0
bin	1537	0
bin	1539	0
bin	1541	0
bin	1543	0
bin	1545	0
bin	1547	0
bin	1549	0
bin	1551	0
bin	1553	0
bin	1555	0
bin	1557	0
bin	1559	0
bin	1561	0
bin	1563	0
bin	1565	0
bin	1567	0
bin	1569	0
bin	1571	0
bin	1573	0
bin	1575	0
bin	1577	0
bin	1579	0
bin	1581	0
bin	1583	0
bin	1585	0
bin	1587	0
bin	1589	1
bin	1591	0
scalar Net5.rte[1].queue[3] txBytes:count 730
attr interpolationmode none
attr title "transmitting packet byte length, count"
attr unit bytes
scalar Net5.rte[1].queue[3] txBytes:sum 1095230
attr interpolationmode none
attr title "transmitting packet byte length, sum"
attr unit bytes
statistic Net5.rte[1].queue[3] txBytes:histogram
field count 730
field mean 1500.3150684932
field stddev 4.8329479407417
field min 1500
field max 1590
field sum 1095230
field sqrsum 1643207100
attr interpolationmode none
attr title "transmitting packet byte length, histogram"
attr unit bytes
bin	-inf	0
bin	1499	726
bin	1501	0
bin	1503	0
bin	1505	0
bin	1507	0
bin	1509	1
bin	1511	0
bin	1513	0
bin	1515	0
bin	1517	0
bin	1519	0
bin	1521	0
bin	1523	0
bin	1525	0
bin	1527	0
bin	1529	0
bin	1531	0
bin	1533	0
bin	1535	0
bin	1537	0
bin	1539	0
bin	1541	0
bin	1543	0
bin	1545	0
bin	1547	0
bin	1549	1
bin	1551	0
bin	1553	0
bin	1555	0
bin	1557	0
bin	1559	0
bin	1561	0
bin	1563	0
bin	1565	0
bin	1567	0
bin	1569	0
bin	1571	0
bin	1573	0
bin	1575	0
bin	1577	0
bin	1579	1
bin	1581	0
bin	1583	0
bin	1585	0
bin	1587	0
bin	1589	1
bin	1591	0
scalar Net5.rte[1].queue[3] busy:timeavg 0.019971810023309
attr interpolationmode sample-hold
attr title "server busy state, timeavg"
scalar Net5.rte[1].queue[3] qlen:timeavg 0.16725544812281
attr interpolationmode sample-hold
attr title "queue length, timeavg"
scalar Net5.rte[1].queue[3] qlen:max 37
attr interpolationmode sample-hold
attr title "queue length, max"
scalar Net5.rte[1].queue[3] drop:count 0
attr interpolationmode none
attr title "dropped packet byte length, count"
attr unit bytes
scalar Net5.rte[1].queue[3] drop:sum 0
attr interpolationmode none
attr title "dropped packet byte length, sum"
attr unit bytes
scalar Net5.rte[2].app hopCount:mean 3.6301131418625
attr interpolationmode none
attr title "hop count of arrived packets, mean"
scalar Net5.rte[2].app hopCount:max 6
attr interpolationmode none
attr title "hop count of arrived packets, max"
scalar Net5.rte[2].app endToEndDelay:mean 0.37068512113276
attr interpolationmode none
attr title "end-to-end delay of arrived packets, mean"
attr unit s
scalar Net5.rte[2].app endToEndDelay:max 0.623333333338
attr interpolationmode none
attr title "end-to-end delay of arrived packets, max"
attr unit s
statistic Net5.rte[2].routing outputIf:histogram
field count 2990
field mean 0.28595317725753
field stddev 1.2033896079378
field min -1
field max 2
field sum 855
field sqrsum 4573
attr interpolationmode none
attr title "output interface for each routed packet, histogram"
bin	-inf	0
bin	-2	0
bin	-1	1149
bin	0	547
bin	1	584
bin	2	710
bin	3	0
scalar Net5.rte[2].routing drop:count 0
attr interpolationmode none
attr title "dropped packet byte length, count"
attr unit bytes
scalar Net5.rte[2].routing drop:sum 0
attr interpolationmode none
attr title "dropped packet byte length, sum"
attr unit bytes
scalar Net5.rte[2].queue[0] rxBytes:count 674
attr interpolationmode none
attr title "received packet byte length, count"
attr unit bytes
scalar Net5.rte[2].queue[0] rxBytes:sum 1011230
attr interpolationmode none
attr title "received packet byte length, sum"
attr unit bytes
statistic Net5.rte[2].queue[0] rxBytes:histogram
field count 674
field mean 1500.3412462908
field stddev 5.1747347920514
field min 1500
field max 1590
field sum 1011230
field sqrsum 1517208100
attr interpolationmode none
attr title "received packet byte length, histogram"
attr unit bytes
bin	-inf	0
bin	1499	671
bin	1501	0
bin	1503	0
bin	1505	0
bin	1507	0
bin	1509	0
bin	1511	0
bin	1513	0
bin	1515	0
bin	1517	0
bin	1519	0
bin	1521	0
bin	1523	0
bin	1525	0
bin	1527	0
bin	1529	0
bin	1531	0
bin	1533	0
bin	1535	0
bin	1537	0
bin	1539	0
bin	1541	0
bin	1543	0
bin	1545	0
bin	1547	0
bin	1549	0
bin	1551	0
bin	1553	0
bin	1555	0
bin	1557	0
bin	1559	1
bin	1561	0
bin	1563	0
bin	1565	0
bin	1567	0
bin	1569	0
bin	1571	0
bin	1573	0
bin	1575	0
bin	1577	0
bin	1579	1
bin	1581	0
bin	1583	0
bin	1585	0
bin	1587	0
bin	1589	1
bin	1591	0
scalar Net5.rte[2].queue[0] txBytes:count 547
attr interpolationmode none
attr title "transmitting packet byte length, count"
attr unit bytes
scalar Net5.rte[2].queue[0] txBytes:sum 820590
attr interpolationmode none
attr title "transmitting packet byte length, sum"
attr unit bytes
statistic Net5.rte[2].queue[0] txBytes:histogram
field count 547
field mean 1500.1645338208
field stddev 2.866118853455
field min 1500
field max 1560
field sum 820590
field sqrsum 1231024500
attr interpolationmode none
attr title "transmitting packet byte length, histogram"
attr unit bytes
bin	-inf	0
bin	1499	0
bin	1500	545
bin	1501	0
bin	1502	0
bin	1503	0
bin	1504	0
bin	1505	0
bin	1506	0
bin	1507	0
bin	1508	0
bin	1509	0
bin	1510	0
bin	1511	0
bin	1512	0
bin	1513	0
bin	1514	0
bin	1515	0
bin	1516	0
bin	1517	0
bin	1518	0
bin	1519	0
bin	1520	0
bin	1521	0
bin	1522	0
bin	1523	0
bin	1524	0
bin	1525	0
bin	1526	0
bin	1527	0
bin	1528	0
bin	1529	0
bin	1530	1
bin	1531	0
bin	1532	0
bin	1533	0
bin	1534	0
bin	1535	0
bin	1536	0
bin	1537	0
bin	1538	0
bin	1539	0
bin	1540	0
bin	1541	0
bin	1542	0
bin	1543	0
bin	1544	0
bin	1545	0
bin	1546	0
bin	1547	0
bin	1548	0
bin	1549	0
bin	1550	0
bin	1551	0
bin	1552	0
bin	1553	0
bin	1554	0
bin	1555	0
bin	1556	0
bin	1557	0
bin	1558	0
bin	1559	0
bin	1560	1
bin	1561	0
scalar Net5.rte[2].queue[0] busy:timeavg 0.014963676658799
attr interpolationmode sample-hold
attr title "server busy state, timeavg"
scalar Net5.rte[2].queue[0] qlen:timeavg 0.095613009834125
attr interpolationmode sample-hold
attr title "queue length, timeavg"
scalar Net5.rte[2].queue[0] qlen:max 25
attr interpolationmode sample-hold
attr title "queue length, max"
scalar Net5.rte[2].queue[0] drop:count 0
attr interpolationmode none
attr title "dropped packet byte length, count"
attr unit bytes
scalar Net5.rte[2].queue[0] drop:sum 0
attr interpolationmode none
attr title "dropped packet byte length, sum"
attr unit bytes
scalar Net5.rte[2].queue[1] rxBytes:count 656
attr interpolationmode none
attr title "received packet byte length, count"
attr unit bytes
scalar Net5.rte[2].queue[1] rxBytes:sum 984300
attr interpolationmode none
attr title "received packet byte length, sum"
attr unit bytes
statistic Net5.rte[2].queue[1] rxBytes:histogram
field count 656
field mean 1500.4573170732
field stddev 6.7068160473599
field min 1500
field max 1640
field sum 984300
field sqrsum 1476929600
attr interpolationmode none
attr title "received packet byte length, histogram"
attr unit bytes
bin	-inf	0
bin	1497	0
bin	1499	651
bin	1501	0
bin	1503	0
bin	1505	0
bin	1507	0
bin	1509	1
bin	1511	0
bin	1513	0
bin	1515	0
bin	1517	0
bin	1519	0
bin	1521	0
bin	1523	0
bin	1525	0
bin	1527	0
bin	1529	2
bin	1531	0
bin	1533	0
bin	1535	0
bin	1537	0
bin	1539	0
bin	1541	0
bin	1543	0
bin	1545	0
bin	1547	0
bin	1549	0
bin	1551	0
bin	1553	0
bin	1555	0
bin	1557	0
bin	1559	0
bin	1561	0
bin	1563	0
bin	1565	0
bin	1567	0
bin	1569	0
bin	1571	0
bin	1573	0
bin	1575	0
bin	1577	0
bin	1579	0
bin	1581	0
bin	1583	0
bin	1585	0
bin	1587	0
bin	1589	1
bin	1591	0
bin	1593	0
bin	1595	0
bin	1597	0
bin	1599	0
bin	1601	0
bin	1603	0
bin	1605	0
bin	1607	0
bin	1609	0
bin	1611	0
bin	1613	0
bin	1615	0
bin	1617	0
bin	1619	0
bin	1621	0
bin	1623	0
bin	1625	0
bin	1627	0
bin	1629	0
bin	1631	0
bin	1633	0
bin	1635	0
bin	1637	0
bin	1639	1
bin	1641	0
scalar Net5.rte[2].queue[1] txBytes:count 584
attr interpolationmode none
attr title "transmitting packet byte length, count"
attr unit bytes
scalar Net5.rte[2].queue[1] txBytes:sum 876110
attr interpolationmode none
attr title "transmitting packet byte length, sum"
attr unit bytes
statistic Net5.rte[2].queue[1] txBytes:histogram
field count 584
field mean 1500.1883561644
field stddev 2.8929679993535
field min 1500
field max 1560
field sum 876110
field sqrsum 1314334900
attr interpolationmode none
attr title "transmitting packet byte length, histogram"
attr unit bytes
bin	-inf	0
bin	1499	0
bin	1500	581
bin	1501	0
bin	1502	0
bin	1503	0
bin	1504	0
bin	1505	0
bin	1506	0
bin	1507	0
bin	1508	0
bin	1509	0
bin	1510	0
bin	1511	0
bin	1512	0
bin	1513	0
bin	1514	0
bin	1515	0
bin	1516	0
bin	1517	0
bin	1518	0
bin	1519	0
bin	1520	1
bin	1521	0
bin	1522	0
bin	1523	0
bin	1524	0
bin	1525	0
bin	1526	0
bin	1527	0
bin	1528	0
bin	1529	0
bin	1530	1
bin	1531	0
bin	1532	0
bin	1533	0
bin	1534	0
bin	1535	0
bin	1536	0
bin	1537	0
bin	1538	0
bin	1539	0
bin	1540	0
bin	1541	0
bin	1542	0
bin	1543	0
bin	1544	0
bin	1545	0
bin	1546	0
bin	1547	0
bin	1548	0
bin	1549	0
bin	1550	0
bin	1551	0
bin	1552	0
bin	1553	0
bin	1554	0
bin	1555	0
bin	1556	0
bin	1557	0
bin	1558	0
bin	1559	0
bin	1560	1
bin	1561	0
scalar Net5.rte[2].queue[1] busy:timeavg 0.015976098608975
attr interpolationmode sample-hold
attr title "server busy state, timeavg"
scalar Net5.rte[2].queue[1] qlen:timeavg 0.14537883865728
attr interpolationmode sample-hold
attr title "queue length, timeavg"
scalar Net5.rte[2].queue[1] qlen:max 31
attr interpolationmode sample-hold
attr title "queue length, max"
scalar Net5.rte[2].queue[1] drop:count 0
attr interpolationmode none
attr title "dropped packet byte length, count"
attr unit bytes
scalar Net5.rte[2].queue[1] drop:sum 0
attr interpolationmode none
attr title "dropped packet byte length, sum"
attr unit bytes
scalar Net5.rte[2].queue[2] rxBytes:count 546
attr interpolationmode none
attr title "received packet byte length, count"
attr unit bytes
scalar Net5.rte[2].queue[2] rxBytes:sum 819060
attr interpolationmode none
attr title "received packet byte length, sum"
attr unit bytes
statistic Net5.rte[2].queue[2] rxBytes:histogram
field count 546
field mean 1500.1098901099
field stddev 2.5677629550355
field min 1500
field max 1560
field sum 819060
field sqrsum 1228683600
attr interpolationmode none
attr title "received packet byte length, histogram"
attr unit bytes
bin	-inf	0
bin	1499	0
bin	1500	545
bin	1501	0
bin	1502	0
bin	1503	0
bin	1504	0
bin	1505	0
bin	1506	0
bin	1507	0
bin	1508	0
bin	1509	0
bin	1510	0
bin	1511	0
bin	1512	0
bin	1513	0
bin	1514	0
bin	1515	0
bin	1516	0
bin	1517	0
bin	1518	0
bin	1519	0
bin	1520	0
bin	1521	0
bin	1522	0
bin	1523	0
bin	1524	0
bin	1525	0
bin	1526	0
bin	1527	0
bin	1528	0
bin	1529	0
bin	1530	0
bin	1531	0
bin	1532	0
bin	1533	0
bin	1534	0
bin	1535	0
bin	1536	0
bin	1537	0
bin	1538	0
bin	1539	0
bin	1540	0
bin	1541	0
bin	1542	0
bin	1543	0
bin	1544	0
bin	1545	0
bin	1546	0
bin	1547	0
bin	1548	0
bin	1549	0
bin	1550	0
bin	1551	0
bin	1552	0
bin	1553	0
bin	1554	0
bin	1555	0
bin	1556	0
bin	1557	0
bin	1558	0
bin	1559	0
bin	1560	1
bin	1561	0
scalar Net5.rte[2].queue[2] txBytes:count 710
attr interpolationmode none
attr title "transmitting packet byte length, count"
attr unit bytes
scalar Net5.rte[2].queue[2] txBytes:sum 1065110
attr interpolationmode none
attr title "transmitting packet byte length, sum"
attr unit bytes
statistic Net5.rte[2].queue[2] txBytes:histogram
field count 710
field mean 1500.1549295775
field stddev 2.9291005629556
field min 1500
field max 1560
field sum 1065110
field sqrsum 1597836100
attr interpolationmode none
attr title "transmitting packet byte length, histogram"
attr unit bytes
bin	-inf	0
bin	1499	0
bin	1500	708
bin	1501	0
bin	1502	0
bin	1503	0
bin	1504	0
bin	1505	0
bin	1506	0
bin	1507	0
bin	1508	0
bin	1509	0
bin	1510	0
bin	1511	0
bin	1512	0
bin	1513	0
bin	1514	0
bin	1515	0
bin	1516	0
bin	1517	0
bin	1518	0
bin	1519	0
bin	1520	0
bin	1521	0
bin	1522	0
bin	1523	0
bin	1524	0
bin	1525	0
bin	1526	0
bin	1527	0
bin	1528	0
bin	1529	0
bin	1530	0
bin	1531	0
bin	1532	0
bin	1533	0
bin	1534	0
bin	1535	0
bin	1536	0
bin	1537	0
bin	1538	0
bin	1539	0
bin	1540	0
bin	1541	0
bin	1542	0
bin	1543	0
bin	1544	0
bin	1545	0
bin	1546	0
bin	1547	0
bin	1548	0
bin	1549	0
bin	1550	1
bin	1551	0
bin	1552	0
bin	1553	0
bin	1554	0
bin	1555	0
bin	1556	0
bin	1557	0
bin	1558	0
bin	1559	0
bin	1560	1
bin	1561	0
scalar Net5.rte[2].queue[2] busy:timeavg 0.01942256382122
attr interpolationmode sample-hold
attr title "server busy state, timeavg"
scalar Net5.rte[2].queue[2] qlen:timeavg 0.27781374489485
attr interpolationmode sample-hold
attr title "queue length, timeavg"
scalar Net5.rte[2].queue[2] qlen:max 43
attr interpolationmode sample-hold
attr title "queue length, max"
scalar Net5.rte[2].queue[2] drop:count 0
attr interpolationmode none
attr title "dropped packet byte length, count"
attr unit bytes
scalar Net5.rte[2].queue[2] drop:sum 0
attr interpolationmode none
attr title "dropped packet byte length, sum"
attr unit bytes
scalar Net5.rte[3].app hopCount:mean 2.7443674176776
attr interpolationmode none
attr title "hop count of arrived packets, mean"
scalar Net5.rte[3].app hopCount:max 4
attr interpolationmode none
attr title "hop count of arrived packets, max"
scalar Net5.rte[3].app endToEndDelay:mean 0.28127085698909
attr interpolationmode none
attr title "end-to-end delay of arrived packets, mean"
attr unit s
scalar Net5.rte[3].app endToEndDelay:max 0.48448094774
attr interpolationmode none
attr title "end-to-end delay of arrived packets, max"
attr unit s
statistic Net5.rte[3].routing outputIf:histogram
field count 6711
field mean 1.4668454775741
field stddev 1.8172207009115
field min -1
field max 5
field sum 9844
field sqrsum 36598
attr interpolationmode none
attr title "output interface for each routed packet, histogram"
bin	-inf	0
bin	-3	0
bin	-2	0
bin	-1	1154
bin	0	1181
bin	1	1338
bin	2	1036
bin	3	855
bin	4	712
bin	5	435
bin	6	0
bin	7	0
scalar Net5.rte[3].routing drop:count 0
attr interpolationmode none
attr title "dropped packet byte length, count"
attr unit bytes
scalar Net5.rte[3].routing drop:sum 0
attr interpolationmode none
attr title "dropped packet byte length, sum"
attr unit bytes
scalar Net5.rte[3].queue[0] rxBytes:count 1003
attr interpolationmode none
attr title "received packet byte length, count"
attr unit bytes
scalar Net5.rte[3].queue[0] rxBytes:sum 1504790
attr interpolationmode none
attr title "received packet byte length, sum"
attr unit bytes
statistic Net5.rte[3].queue[0] rxBytes:histogram
field count 1003
field mean 1500.2891326022
field stddev 3.8711986757528
field min 1500
field max 1560
field sum 1504790
field sqrsum 2257635100
attr interpolationmode none
attr title "received packet byte length, histogram"
attr unit bytes
bin	-inf	0
bin	1499	0
bin	1500	997
bin	1501	0
bin	1502	0
bin	1503	0
bin	1504	0
bin	1505	0
bin	1506	0
bin	1507	0
bin	1508	0
bin	1509	0
bin	1510	0
bin	1511	0
bin	1512	0
bin	1513	0
bin	1514	0
bin	1515	0
bin	1516	0
bin	1517	0
bin	1518	0
bin	1519	0
bin	1520	0
bin	1521	0
bin	1522	0
bin	1523	0
bin	1524	0
bin	1525	0
bin	1526	0
bin	1527	0
bin	1528	0
bin	1529	0
bin	1530	2
bin	1531	0
bin	1532	0
bin	1533	0
bin	1534	0
bin	1535	0
bin	1536	0
bin	1537	0
bin	1538	0
bin	1539	0
bin	1540	0
bin	1541	0
bin	1542	0
bin	1543	0
bin	1544	0
bin	1545	0
bin	1546	0
bin	1547	0
bin	1548	0
bin	1549	0
bin	1550	1
bin	1551	0
bin	1552	0
bin	1553	0
bin	1554	0
bin	1555	0
bin	1556	0
bin	1557	0
bin	1558	0
bin	1559	0
bin	1560	3
bin	1561	0
scalar Net5.rte[3].queue[0] txBytes:count 1181
attr interpolationmode none
attr title "transmitting packet byte length, count"
attr unit bytes
scalar Net5.rte[3].queue[0] txBytes:sum 1771960
attr interpolationmode none
attr title "transmitting packet byte length, sum"
attr unit bytes
statistic Net5.rte[3].queue[0] txBytes:histogram
field count 1181
field mean 1500.3895004234
field stddev 7.048309678681
field min 1500
field max 1660
field sum 1771960
field sqrsum 2658688800
attr interpolationmode none
attr title "transmitting packet byte length, histogram"
attr unit bytes
bin	-inf	0
bin	1499	1177
bin	1502	0
bin	1505	0
bin	1508	0
bin	1511	0
bin	1514	0
bin	1517	0
bin	1520	0
bin	1523	0
bin	1526	0
bin	1529	0
bin	1532	0
bin	1535	0
bin	1538	0
bin	1541	0
bin	1544	0
bin	1547	0
bin	1550	0
bin	1553	0
bin	1556	0
bin	1559	1
bin	1562	0
bin	1565	0
bin	1568	0
bin	1571	0
bin	1574	0
bin	1577	0
bin	1580	0
bin	1583	0
bin	1586	0
bin	1589	0
bin	1592	0
bin	1595	0
bin	1598	1
bin	1601	0
bin	1604	0
bin	1607	0
bin	1610	0
bin	1613	0
bin	1616	0
bin	1619	0
bin	1622	0
bin	1625	0
bin	1628	0
bin	1631	0
bin	1634	0
bin	1637	0
bin	1640	1
bin	1643	0
bin	1646	0
bin	1649	0
bin	1652	0
bin	1655	0
bin	1658	1
bin	1661	0
scalar Net5.rte[3].queue[0] busy:timeavg 0.032312161362344
attr interpolationmode sample-hold
attr title "server busy state, timeavg"
scalar Net5.rte[3].queue[0] qlen:timeavg 0.14492189883311
attr interpolationmode sample-hold
attr title "queue length, timeavg"
scalar Net5.rte[3].queue[0] qlen:max 25
attr interpolationmode sample-hold
attr title "queue length, max"
scalar Net5.rte[3].queue[0] drop:count 0
attr interpolationmode none
attr title "dropped packet byte length, count"
attr unit bytes
scalar Net5.rte[3].queue[0] drop:sum 0
attr interpolationmode none
attr title "dropped packet byte length, sum"
attr unit bytes
scalar Net5.rte[3].queue[1] rxBytes:count 1189
attr interpolationmode none
attr title "received packet byte length, count"
attr unit bytes
scalar Net5.rte[3].queue[1] rxBytes:sum 1783600
attr interpolationmode none
attr title "received packet byte length, sum"
attr unit bytes
statistic Net5.rte[3].queue[1] rxBytes:histogram
field count 1189
field mean 1500.0841042893
field stddev 1.6896370545954
field min 1500
field max 1550
field sum 1783600
field sqrsum 2675553400
attr interpolationmode none
attr title "received packet byte length, histogram"
attr unit bytes
bin	-inf	0
bin	1499	0
bin	1500	1185
bin	1501	0
bin	1502	0
bin	1503	0
bin	1504	0
bin	1505	0
bin	1506	0
bin	1507	0
bin	1508	0
bin	1509	0
bin	1510	1
bin	1511	0
bin	1512	0
bin	1513	0
bin	1514	0
bin	1515	0
bin	1516	0
bin	1517	0
bin	1518	0
bin	1519	0
bin	1520	2
bin	1521	0
bin	1522	0
bin	1523	0
bin	1524	0
bin	1525	0
bin	1526	0
bin	1527	0
bin	1528	0
bin	1529	0
bin	1530	0
bin	1531	0
bin	1532	0
bin	1533	0
bin	1534	0
bin	1535	0
bin	1536	0
bin	1537	0
bin	1538	0
bin	1539	0
bin	1540	0
bin	1541	0
bin	1542	0
bin	1543	0
bin	1544	0
bin	1545	0
bin	1546	0
bin	1547	0
bin	1548	0
bin	1549	0
bin	1550	1
bin	1551	0
scalar Net5.rte[3].queue[1] txBytes:count 1338
attr interpolationmode none
attr title "transmitting packet byte length, count"
attr unit bytes
scalar Net5.rte[3].queue[1] txBytes:sum 2007520
attr interpolationmode none
attr title "transmitting packet byte length, sum"
attr unit bytes
statistic Net5.rte[3].queue[1] txBytes:histogram
field count 1338
field mean 1500.3886397608
field stddev 5.4421488208077
field min 1500
field max 1610
field sum 2007520
field sqrsum 3012099800
attr interpolationmode none
attr title "transmitting packet byte length, histogram"
attr unit bytes
bin	-inf	0
bin	1499	1330
bin	1501	0
bin	1503	0
bin	1505	0
bin	1507	0
bin	1509	0
bin	1511	0
bin	1513	0
bin	1515	0
bin	1517	0
bin	1519	0
bin	1521	0
bin	1523	0
bin	1525	0
bin	1527	0
bin	1529	2
bin	1531	0
bin	1533	0
bin	1535	0
bin	1537	0
bin	1539	0
bin	1541	0
bin	1543	0
bin	1545	0
bin	1547	0
bin	1549	1
bin	1551	0
bin	1553	0
bin	1555	0
bin	1557	0
bin	1559	2
bin	1561	0
bin	1563	0
bin	1565	0
bin	1567	0
bin	1569	0
bin	1571	0
bin	1573	0
bin	1575	0
bin	1577	0
bin	1579	0
bin	1581	0
bin	1583	0
bin	1585	0
bin	1587	0
bin	1589	2
bin	1591	0
bin	1593	0
bin	1595	0
bin	1597	0
bin	1599	0
bin	1601	0
bin	1603	0
bin	1605	0
bin	1607	0
bin	1609	1
bin	1611	0
scalar Net5.rte[3].queue[1] busy:timeavg 0.036607660544324
attr interpolationmode sample-hold
attr title "server busy state, timeavg"
scalar Net5.rte[3].queue[1] qlen:timeavg 0.21654910716296
attr interpolationmode sample-hold
attr title "queue length, timeavg"
scalar Net5.rte[3].queue[1] qlen:max 30
attr interpolationmode sample-hold
attr title "queue length, max"
scalar Net5.rte[3].queue[1] drop:count 0
attr interpolationmode none
attr title "dropped packet byte length, count"
attr unit bytes
scalar Net5.rte[3].queue[1] drop:sum 0
attr interpolationmode none
attr title "dropped packet byte length, sum"
attr unit bytes
scalar Net5.rte[3].queue[2] rxBytes:count 874
attr interpolationmode none
attr title "received packet byte length, count"
attr unit bytes
scalar Net5.rte[3].queue[2] rxBytes:sum 1311340
attr interpolationmode none
attr title "received packet byte length, sum"
attr unit bytes
statistic Net5.rte[3].queue[2] rxBytes:histogram
field count 874
field mean 1500.3890160183
field stddev 5.7304610556603
field min 1500
field max 1620
field sum 1311340
field sqrsum 1967548800
attr interpolationmode none
attr title "received packet byte length, histogram"
attr unit bytes
bin	-inf	0
bin	1499	868
bin	1502	0
bin	1505	0
bin	1508	1
bin	1511	0
bin	1514	0
bin	1517	0
bin	1520	1
bin	1523	0
bin	1526	0
bin	1529	1
bin	1532	0
bin	1535	0
bin	1538	0
bin	1541	0
bin	1544	0
bin	1547	0
bin	1550	0
bin	1553	0
bin	1556	0
bin	1559	0
bin	1562	0
bin	1565	0
bin	1568	1
bin	1571	0
bin	1574	0
bin	1577	0
bin	1580	0
bin	1583	0
bin	1586	0
bin	1589	1
bin	1592	0
bin	1595	0
bin	1598	0
bin	1601	0
bin	1604	0
bin	1607	0
bin	1610	0
bin	1613	0
bin	1616	0
bin	1619	1
bin	1622	0
scalar Net5.rte[3].queue[2] txBytes:count 1036
attr interpolationmode none
attr title "transmitting packet byte length, count"
attr unit bytes
scalar Net5.rte[3].queue[2] txBytes:sum 1554160
attr interpolationmode none
attr title "transmitting packet byte length, sum"
attr unit bytes
statistic Net5.rte[3].queue[2] txBytes:histogram
field count 1036
field mean 1500.1544401544
field stddev 3.9287481964871
field min 1500
field max 1620
field sum 1554160
field sqrsum 2331496000
attr interpolationmode none
attr title "transmitting packet byte length, histogram"
attr unit bytes
bin	-inf	0
bin	1499	1034
bin	1502	0
bin	1505	0
bin	1508	0
bin	1511	0
bin	1514	0
bin	1517	0
bin	1520	0
bin	1523	0
bin	1526	0
bin	1529	0
bin	1532	0
bin	1535	0
bin	1538	1
bin	1541	0
bin	1544	0
bin	1547	0
bin	1550	0
bin	1553	0
bin	1556	0
bin	1559	0
bin	1562	0
bin	1565	0
bin	1568	0
bin	1571	0
bin	1574	0
bin	1577	0
bin	1580	0
bin	1583	0
bin	1586	0
bin	1589	0
bin	1592	0
bin	1595	0
bin	1598	0
bin	1601	0
bin	1604	0
bin	1607	0
bin	1610	0
bin	1613	0
bin	1616	0
bin	1619	1
bin	1622	0
scalar Net5.rte[3].queue[2] busy:timeavg 0.028340520498732
attr interpolationmode sample-hold
attr title "server busy state, timeavg"
scalar Net5.rte[3].queue[2] qlen:timeavg 0.013696734052248
attr interpolationmode sample-hold
attr title "queue length, timeavg"
scalar Net5.rte[3].queue[2] qlen:max 7
attr interpolationmode sample-hold
attr title "queue length, max"
scalar Net5.rte[3].queue[2] drop:count 0
attr interpolationmode none
attr title "dropped packet byte length, count"
attr unit bytes
scalar Net5.rte[3].queue[2] drop:sum 0
attr interpolationmode none
attr title "dropped packet byte length, sum"
attr unit bytes
scalar Net5.rte[3].queue[3] rxBytes:count 725
attr interpolationmode none
attr title "received packet byte length, count"
attr unit bytes
scalar Net5.rte[3].queue[3] rxBytes:sum 1087560
attr interpolationmode none
attr title "received packet byte length, sum"
attr unit bytes
statistic Net5.rte[3].queue[3] rxBytes:histogram
field count 725
field mean 1500.0827586207
field stddev 2.2283440581119
field min 1500
field max 1560
field sum 1087560
field sqrsum 1631433600
attr interpolationmode none
attr title "received packet byte length, histogram"
attr unit bytes
bin	-inf	0
bin	1499	0
bin	1500	724
bin	1501	0
bin	1502	0
bin	1503	0
bin	1504	0
bin	1505	0
bin	1506	0
bin	1507	0
bin	1508	0
bin	1509	0
bin	1510	0
bin	1511	0
bin	1512	0
bin	1513	0
bin	1514	0
bin	1515	0
bin	1516	0
bin	1517	0
bin	1518	0
bin	1519	0
bin	1520	0
bin	1521	0
bin	1522	0
bin	1523	0
bin	1524	0
bin	1525	0
bin	1526	0
bin	1527	0
bin	1528	0
bin	1529	0
bin	1530	0
bin	1531	0
bin	1532	0
bin	1533	0
bin	1534	0
bin	1535	0
bin	1536	0
bin	1537	0
bin	1538	0
bin	1539	0
bin	1540	0
bin	1541	0
bin	1542	0
bin	1543	0
bin	1544	0
bin	1545	0
bin	1546	0
bin	1547	0
bin	1548	0
bin	1549	0
bin	1550	0
bin	1551	0
bin	1552	0
bin	1553	0
bin	1554	0
bin	1555	0
bin	1556	0
bin	1557	0
bin	1558	0
bin	1559	0
bin	1560	1
bin	1561	0
scalar Net5.rte[3].queue[3] txBytes:count 855
attr interpolationmode none
attr title "transmitting packet byte length, count"
attr unit bytes
scalar Net5.rte[3].queue[3] txBytes:sum 1282820
attr interpolationmode none
attr title "transmitting packet byte length, sum"
attr unit bytes
statistic Net5.rte[3].queue[3] txBytes:histogram
field count 855
field mean 1500.3742690058
field stddev 5.8152905447329
field min 1500
field max 1620
field sum 1282820
field sqrsum 1924739000
attr interpolationmode none
attr title "transmitting packet byte length, histogram"
attr unit bytes
bin	-inf	0
bin	1499	851
bin	1502	0
bin	1505	0
bin	1508	0
bin	1511	0
bin	1514	0
bin	1517	0
bin	1520	0
bin	1523	0
bin	1526	0
bin	1529	0
bin	1532	0
bin	1535	0
bin	1538	1
bin	1541	0
bin	1544	0
bin	1547	0
bin	1550	0
bin	1553	0
bin	1556	0
bin	1559	0
bin	1562	0
bin	1565	0
bin	1568	1
bin	1571	0
bin	1574	0
bin	1577	0
bin	1580	0
bin	1583	0
bin	1586	0
bin	1589	1
bin	1592	0
bin	1595	0
bin	1598	0
bin	1601	0
bin	1604	0
bin	1607	0
bin	1610	0
bin	1613	0
bin	1616	0
bin	1619	1
bin	1622	0
scalar Net5.rte[3].queue[3] busy:timeavg 0.023392563510938
attr interpolationmode sample-hold
attr title "server busy state, timeavg"
scalar Net5.rte[3].queue[3] qlen:timeavg 0.02606533851079
attr interpolationmode sample-hold
attr title "queue length, timeavg"
scalar Net5.rte[3].queue[3] qlen:max 10
attr interpolationmode sample-hold
attr title "queue length, max"
scalar Net5.rte[3].queue[3] drop:count 0
attr interpolationmode none
attr title "dropped packet byte length, count"
attr unit bytes
scalar Net5.rte[3].queue[3] drop:sum 0
attr interpolationmode none
attr title "dropped packet byte length, sum"
attr unit bytes
scalar Net5.rte[3].queue[4] rxBytes:count 828
attr interpolationmode none
attr title "received packet byte length, count"
attr unit bytes
scalar Net5.rte[3].queue[4] rxBytes:sum 1242240
attr interpolationmode none
attr title "received packet byte length, sum"
attr unit bytes
statistic Net5.rte[3].queue[4] rxBytes:histogram
field count 828
field mean 1500.2898550725
field stddev 4.4164191262876
field min 1500
field max 1590
field sum 1242240
field sqrsum 1863736200
attr interpolationmode none
attr title "received packet byte length, histogram"
attr unit bytes
bin	-inf	0
bin	1499	824
bin	1501	0
bin	1503	0
bin	1505	0
bin	1507	0
bin	1509	0
bin	1511	0
bin	1513	0
bin	1515	0
bin	1517	0
bin	1519	0
bin	1521	0
bin	1523	0
bin	1525	0
bin	1527	0
bin	1529	0
bin	1531	0
bin	1533	0
bin	1535	0
bin	1537	0
bin	1539	2
bin	1541	0
bin	1543	0
bin	1545	0
bin	1547	0
bin	1549	0
bin	1551	0
bin	1553	0
bin	1555	0
bin	1557	0
bin	1559	0
bin	1561	0
bin	1563	0
bin	1565	0
bin	1567	0
bin	1569	1
bin	1571	0
bin	1573	0
bin	1575	0
bin	1577	0
bin	1579	0
bin	1581	0
bin	1583	0
bin	1585	0
bin	1587	0
bin	1589	1
bin	1591	0
scalar Net5.rte[3].queue[4] txBytes:count 712
attr interpolationmode none
attr title "transmitting packet byte length, count"
attr unit bytes
scalar Net5.rte[3].queue[4] txBytes:sum 1068100
attr interpolationmode none
attr title "transmitting packet byte length, sum"
attr unit bytes
statistic Net5.rte[3].queue[4] txBytes:histogram
field count 712
field mean 1500.1404494382
field stddev 2.8526778339762
field min 1500
field max 1570
field sum 1068100
field sqrsum 1602305800
attr interpolationmode none
attr title "transmitting packet byte length, histogram"
attr unit bytes
bin	-inf	0
bin	1499	0
bin	1500	710
bin	1501	0
bin	1502	0
bin	1503	0
bin	1504	0
bin	1505	0
bin	1506	0
bin	1507	0
bin	1508	0
bin	1509	0
bin	1510	0
bin	1511	0
bin	1512	0
bin	1513	0
bin	1514	0
bin	1515	0
bin	1516	0
bin	1517	0
bin	1518	0
bin	1519	0
bin	1520	0
bin	1521	0
bin	1522	0
bin	1523	0
bin	1524	0
bin	1525	0
bin	1526	0
bin	1527	0
bin	1528	0
bin	1529	0
bin	1530	1
bin	1531	0
bin	1532	0
bin	1533	0
bin	1534	0
bin	1535	0
bin	1536	0
bin	1537	0
bin	1538	0
bin	1539	0
bin	1540	0
bin	1541	0
bin	1542	0
bin	1543	0
bin	1544	0
bin	1545	0
bin	1546	0
bin	1547	0
bin	1548	0
bin	1549	0
bin	1550	0
bin	1551	0
bin	1552	0
bin	1553	0
bin	1554	0
bin	1555	0
bin	1556	0
bin	1557	0
bin	1558	0
bin	1559	0
bin	1560	0
bin	1561	0
bin	1562	0
bin	1563	0
bin	1564	0
bin	1565	0
bin	1566	0
bin	1567	0
bin	1568	0
bin	1569	0
bin	1570	1
bin	1571	0
scalar Net5.rte[3].queue[4] busy:timeavg 0.019477087265585
attr interpolationmode sample-hold
attr title "server busy state, timeavg"
scalar Net5.rte[3].queue[4] qlen:timeavg 0.099689879286046
attr interpolationmode sample-hold
attr title "queue length, timeavg"
scalar Net5.rte[3].queue[4] qlen:max 21
attr interpolationmode sample-hold
attr title "queue length, max"
scalar Net5.rte[3].queue[4] drop:count 0
attr interpolationmode none
attr title "dropped packet byte length, count"
attr unit bytes
scalar Net5.rte[3].queue[4] drop:sum 0
attr interpolationmode none
attr title "dropped packet byte length, sum"
attr unit bytes
scalar Net5.rte[3].queue[5] rxBytes:count 374
attr interpolationmode none
attr title "received packet byte length, count"
attr unit bytes
scalar Net5.rte[3].queue[5] rxBytes:sum 561290
attr interpolationmode none
attr title "received packet byte length, sum"
attr unit bytes
statistic Net5.rte[3].queue[5] rxBytes:histogram
field count 374
field mean 1500.7754010695
field stddev 8.8288968778726
field min 1500
field max 1620
field sum 561290
field sqrsum 842399300
attr interpolationmode none
attr title "received packet byte length, histogram"
attr unit bytes
bin	-inf	0
bin	1499	371
bin	1501	0
bin	1503	0
bin	1505	0
bin	1507	0
bin	1509	0
bin	1511	0
bin	1513	0
bin	1515	0
bin	1517	0
bin	1519	0
bin	1521	0
bin	1523	0
bin	1525	0
bin	1527	0
bin	1529	0
bin	1531	0
bin	1533	0
bin	1535	0
bin	1537	0
bin	1539	0
bin	1541	0
bin	1543	0
bin	1545	0
bin	1547	0
bin	1549	0
bin	1551	0
bin	1553	0
bin	1555	0
bin	1557	0
bin	1559	0
bin	1561	0
bin	1563	0
bin	1565	0
bin	1567	0
bin	1569	1
bin	1571	0
bin	1573	0
bin	1575	0
bin	1577	0
bin	1579	0
bin	1581	0
bin	1583	0
bin	1585	0
bin	1587	0
bin	1589	0
bin	1591	0
bin	1593	0
bin	1595	0
bin	1597	0
bin	1599	1
bin	1601	0
bin	1603	0
bin	1605	0
bin	1607	0
bin	1609	0
bin	1611	0
bin	1613	0
bin	1615	0
bin	1617	0
bin	1619	1
bin	1621	0
scalar Net5.rte[3].queue[5] txBytes:count 435
attr interpolationmode none
attr title "transmitting packet byte length, count"
attr unit bytes
scalar Net5.rte[3].queue[5] txBytes:sum 652530
attr interpolationmode none
attr title "transmitting packet byte length, sum"
attr unit bytes
statistic Net5.rte[3].queue[5] txBytes:histogram
field count 435
field mean 1500.0689655172
field stddev 1.0711239568701
field min 1500
field max 1520
field sum 652530
field sqrsum 978840500
attr interpolationmode none
attr title "transmitting packet byte length, histogram"
attr unit bytes
bin	-inf	0
bin	1495	0
bin	1496	0
bin	1497	0
bin	1498	0
bin	1499	0
bin	1500	433
bin	1501	0
bin	1502	0
bin	1503	0
bin	1504	0
bin	1505	0
bin	1506	0
bin	1507	0
bin	1508	0
bin	1509	0
bin	1510	1
bin	1511	0
bin	1512	0
bin	1513	0
bin	1514	0
bin	1515	0
bin	1516	0
bin	1517	0
bin	1518	0
bin	1519	0
bin	1520	1
bin	1521	0
bin	1522	0
bin	1523	0
bin	1524	0
bin	1525	0
scalar Net5.rte[3].queue[5] busy:timeavg 0.011899057909763
attr interpolationmode sample-hold
attr title "server busy state, timeavg"
scalar Net5.rte[3].queue[5] qlen:timeavg 0.0029872935938151
attr interpolationmode sample-hold
attr title "queue length, timeavg"
scalar Net5.rte[3].queue[5] qlen:max 4
attr interpolationmode sample-hold
attr title "queue length, max"
scalar Net5.rte[3].queue[5] drop:count 0
attr interpolationmode none
attr title "dropped packet byte length, count"
attr unit bytes
scalar Net5.rte[3].queue[5] drop:sum 0
attr interpolationmode none
attr title "dropped packet byte length, sum"
attr unit bytes
scalar Net5.rte[4].app hopCount:mean 2.7419635099913
attr interpolationmode none
attr title "hop count of arrived packets, mean"
scalar Net5.rte[4].app hopCount:max 5
attr interpolationmode none
attr title "hop count of arrived packets, max"
scalar Net5.rte[4].app endToEndDelay:mean 0.28117022898672
attr interpolationmode none
attr title "end-to-end delay of arrived packets, mean"
attr unit s
scalar Net5.rte[4].app endToEndDelay:max 0.51666666667
attr interpolationmode none
attr title "end-to-end delay of arrived packets, max"
attr unit s
statistic Net5.rte[4].routing outputIf:histogram
field count 5213
field mean 1.4235564933819
field stddev 1.7515910573744
field min -1
field max 4
field sum 7421
field sqrsum 26555
attr interpolationmode none
attr title "output interface for each routed packet, histogram"
bin	-inf	0
bin	-3	0
bin	-2	0
bin	-1	1151
bin	0	664
bin	1	609
bin	2	1261
bin	3	671
bin	4	857
bin	5	0
bin	6	0
scalar Net5.rte[4].routing drop:count 0
attr interpolationmode none
attr title "dropped packet byte length, count"
attr unit bytes
scalar Net5.rte[4].routing drop:sum 0
attr interpolationmode none
attr title "dropped packet byte length, sum"
attr unit bytes
scalar Net5.rte[4].queue[0] rxBytes:count 1050
attr interpolationmode none
attr title "received packet byte length, count"
attr unit bytes
scalar Net5.rte[4].queue[0] rxBytes:sum 1575300
attr interpolationmode none
attr title "received packet byte length, sum"
attr unit bytes
statistic Net5.rte[4].queue[0] rxBytes:histogram
field count 1050
field mean 1500.2857142857
field stddev 4.3130906458261
field min 1500
field max 1580
field sum 1575300
field sqrsum 2363419600
attr interpolationmode none
attr title "received packet byte length, histogram"
attr unit bytes
bin	-inf	0
bin	1499	0
bin	1500	1045
bin	1501	0
bin	1502	0
bin	1503	0
bin	1504	0
bin	1505	0
bin	1506	0
bin	1507	0
bin	1508	0
bin	1509	0
bin	1510	0
bin	1511	0
bin	1512	0
bin	1513	0
bin	1514	0
bin	1515	0
bin	1516	0
bin	1517	0
bin	1518	0
bin	1519	0
bin	1520	0
bin	1521	0
bin	1522	0
bin	1523	0
bin	1524	0
bin	1525	0
bin	1526	0
bin	1527	0
bin	1528	0
bin	1529	0
bin	1530	1
bin	1531	0
bin	1532	0
bin	1533	0
bin	1534	0
bin	1535	0
bin	1536	0
bin	1537	0
bin	1538	0
bin	1539	0
bin	1540	0
bin	1541	0
bin	1542	0
bin	1543	0
bin	1544	0
bin	1545	0
bin	1546	0
bin	1547	0
bin	1548	0
bin	1549	0
bin	1550	1
bin	1551	0
bin	1552	0
bin	1553	0
bin	1554	0
bin	1555	0
bin	1556	0
bin	1557	0
bin	1558	0
bin	1559	0
bin	1560	0
bin	1561	0
bin	1562	0
bin	1563	0
bin	1564	0
bin	1565	0
bin	1566	0
bin	1567	0
bin	1568	0
bin	1569	0
bin	1570	2
bin	1571	0
bin	1572	0
bin	1573	0
bin	1574	0
bin	1575	0
bin	1576	0
bin	1577	0
bin	1578	0
bin	1579	0
bin	1580	1
bin	1581	0
scalar Net5.rte[4].queue[0] txBytes:count 664
attr interpolationmode none
attr title "transmitting packet byte length, count"
attr unit bytes
scalar Net5.rte[4].queue[0] txBytes:sum 996370
attr interpolationmode none
attr title "transmitting packet byte length, sum"
attr unit bytes
statistic Net5.rte[4].queue[0] txBytes:histogram
field count 664
field mean 1500.5572289157
field stddev 7.9301080907245
field min 1500
field max 1650
field sum 996370
field sqrsum 1495151900
attr interpolationmode none
attr title "transmitting packet byte length, histogram"
attr unit bytes
bin	-inf	0
bin	1499	660
bin	1501	0
bin	1503	0
bin	1505	0
bin	1507	0
bin	1509	0
bin	1511	0
bin	1513	0
bin	1515	0
bin	1517	0
bin	1519	0
bin	1521	0
bin	1523	0
bin	1525	0
bin	1527	0
bin	1529	1
bin	1531	0
bin	1533	0
bin	1535	0
bin	1537	0
bin	1539	0
bin	1541	0
bin	1543	0
bin	1545	0
bin	1547	0
bin	1549	0
bin	1551	0
bin	1553	0
bin	1555	0
bin	1557	0
bin	1559	0
bin	1561	0
bin	1563	0
bin	1565	0
bin	1567	0
bin	1569	0
bin	1571	0
bin	1573	0
bin	1575	0
bin	1577	0
bin	1579	1
bin	1581	0
bin	1583	0
bin	1585	0
bin	1587	0
bin	1589	0
bin	1591	0
bin	1593	0
bin	1595	0
bin	1597	0
bin	1599	0
bin	1601	0
bin	1603	0
bin	1605	0
bin	1607	0
bin	1609	1
bin	1611	0
bin	1613	0
bin	1615	0
bin	1617	0
bin	1619	0
bin	1621	0
bin	1623	0
bin	1625	0
bin	1627	0
bin	1629	0
bin	1631	0
bin	1633	0
bin	1635	0
bin	1637	0
bin	1639	0
bin	1641	0
bin	1643	0
bin	1645	0
bin	1647	0
bin	1649	1
bin	1651	0
scalar Net5.rte[4].queue[0] busy:timeavg 0.018169071658841
attr interpolationmode sample-hold
attr title "server busy state, timeavg"
scalar Net5.rte[4].queue[0] qlen:timeavg 0.066129867343069
attr interpolationmode sample-hold
attr title "queue length, timeavg"
scalar Net5.rte[4].queue[0] qlen:max 20
attr interpolationmode sample-hold
attr title "queue length, max"
scalar Net5.rte[4].queue[0] drop:count 0
attr interpolationmode none
attr title "dropped packet byte length, count"
attr unit bytes
scalar Net5.rte[4].queue[0] drop:sum 0
attr interpolationmode none
attr title "dropped packet byte length, sum"
attr unit bytes
scalar Net5.rte[4].queue[1] rxBytes:count 727
attr interpolationmode none
attr title "received packet byte length, count"
attr unit bytes
scalar Net5.rte[4].queue[1] rxBytes:sum 1090830
attr interpolationmode none
attr title "received packet byte length, sum"
attr unit bytes
statistic Net5.rte[4].queue[1] rxBytes:histogram
field count 727
field mean 1500.4539202201
field stddev 7.2869374740897
field min 1500
field max 1650
field sum 1090830
field sqrsum 1636778700
attr interpolationmode none
attr title "received packet byte length, histogram"
attr unit bytes
bin	-inf	0
bin	1499	724
bin	1501	0
bin	1503	0
bin	1505	0
bin	1507	0
bin	1509	0
bin	1511	0
bin	1513	0
bin	1515	0
bin	1517	0
bin	1519	0
bin	1521	0
bin	1523	0
bin	1525	0
bin	1527	0
bin	1529	0
bin	1531	0
bin	1533	0
bin	1535	0
bin	1537	0
bin	1539	0
bin	1541	0
bin	1543	0
bin	1545	0
bin	1547	0
bin	1549	0
bin	1551	0
bin	1553	0
bin	1555	0
bin	1557	0
bin	1559	0
bin	1561	0
bin	1563	0
bin	1565	0
bin	1567	0
bin	1569	0
bin	1571	0
bin	1573	0
bin	1575	0
bin	1577	0
bin	1579	0
bin	1581	0
bin	1583	0
bin	1585	0
bin	1587	0
bin	1589	2
bin	1591	0
bin	1593	0
bin	1595	0
bin	1597	0
bin	1599	0
bin	1601	0
bin	1603	0
bin	1605	0
bin	1607	0
bin	1609	0
bin	1611	0
bin	1613	0
bin	1615	0
bin	1617	0
bin	1619	0
bin	1621	0
bin	1623	0
bin	1625	0
bin	1627	0
bin	1629	0
bin	1631	0
bin	1633	0
bin	1635	0
bin	1637	0
bin	1639	0
bin	1641	0
bin	1643	0
bin	1645	0
bin	1647	0
bin	1649	1
bin	1651	0
scalar Net5.rte[4].queue[1] txBytes:count 609
attr interpolationmode none
attr title "transmitting packet byte length, count"
attr unit bytes
scalar Net5.rte[4].queue[1] txBytes:sum 913580
attr interpolationmode none
attr title "transmitting packet byte length, sum"
attr unit bytes
statistic Net5.rte[4].queue[1] txBytes:histogram
field count 609
field mean 1500.13136289
field stddev 2.8646814167686
field min 1500
field max 1570
field sum 913580
field sqrsum 1370495000
attr interpolationmode none
attr title "transmitting packet byte length, histogram"
attr unit bytes
bin	-inf	0
bin	1497	0
bin	1498	0
bin	1499	0
bin	1500	607
bin	1501	0
bin	1502	0
bin	1503	0
bin	1504	0
bin	1505	0
bin	1506	0
bin	1507	0
bin	1508	0
bin	1509	0
bin	1510	1
bin	1511	0
bin	1512	0
bin	1513	0
bin	1514	0
bin	1515	0
bin	1516	0
bin	1517	0
bin	1518	0
bin	1519	0
bin	1520	0
bin	1521	0
bin	1522	0
bin	1523	0
bin	1524	0
bin	1525	0
bin	1526	0
bin	1527	0
bin	1528	0
bin	1529	0
bin	1530	0
bin	1531	0
bin	1532	0
bin	1533	0
bin	1534	0
bin	1535	0
bin	1536	0
bin	1537	0
bin	1538	0
bin	1539	0
bin	1540	0
bin	1541	0
bin	1542	0
bin	1543	0
bin	1544	0
bin	1545	0
bin	1546	0
bin	1547	0
bin	1548	0
bin	1549	0
bin	1550	0
bin	1551	0
bin	1552	0
bin	1553	0
bin	1554	0
bin	1555	0
bin	1556	0
bin	1557	0
bin	1558	0
bin	1559	0
bin	1560	0
bin	1561	0
bin	1562	0
bin	1563	0
bin	1564	0
bin	1565	0
bin	1566	0
bin	1567	0
bin	1568	0
bin	1569	0
bin	1570	1
bin	1571	0
scalar Net5.rte[4].queue[1] busy:timeavg 0.016659374013757
attr interpolationmode sample-hold
attr title "server busy state, timeavg"
scalar Net5.rte[4].queue[1] qlen:timeavg 0.032337137811261
attr interpolationmode sample-hold
attr title "queue length, timeavg"
scalar Net5.rte[4].queue[1] qlen:max 14
attr interpolationmode sample-hold
attr title "queue length, max"
scalar Net5.rte[4].queue[1] drop:count 0
attr interpolationmode none
attr title "dropped packet byte length, count"
attr unit bytes
scalar Net5.rte[4].queue[1] drop:sum 0
attr interpolationmode none
attr title "dropped packet byte length, sum"
attr unit bytes
scalar Net5.rte[4].queue[2] rxBytes:count 911
attr interpolationmode none
attr title "received packet byte length, count"
attr unit bytes
scalar Net5.rte[4].queue[2] rxBytes:sum 1366850
attr interpolationmode none
attr title "received packet byte length, sum"
attr unit bytes
statistic Net5.rte[4].queue[2] rxBytes:histogram
field count 911
field mean 1500.3841931943
field stddev 6.6930776427501
field min 1500
field max 1660
field sum 1366850
field sqrsum 2050840900
attr interpolationmode none
attr title "received packet byte length, histogram"
attr unit bytes
bin	-inf	0
bin	1499	907
bin	1501	0
bin	1503	0
bin	1505	0
bin	1507	0
bin	1509	0
bin	1511	0
bin	1513	0
bin	1515	0
bin	1517	0
bin	1519	1
bin	1521	0
bin	1523	0
bin	1525	0
bin	1527	0
bin	1529	0
bin	1531	0
bin	1533	0
bin	1535	0
bin	1537	0
bin	1539	0
bin	1541	0
bin	1543	0
bin	1545	0
bin	1547	0
bin	1549	0
bin	1551	0
bin	1553	0
bin	1555	0
bin	1557	0
bin	1559	0
bin	1561	0
bin	1563	0
bin	1565	0
bin	1567	0
bin	1569	1
bin	1571	0
bin	1573	0
bin	1575	0
bin	1577	0
bin	1579	0
bin	1581	0
bin	1583	0
bin	1585	0
bin	1587	0
bin	1589	0
bin	1591	0
bin	1593	0
bin	1595	0
bin	1597	0
bin	1599	1
bin	1601	0
bin	1603	0
bin	1605	0
bin	1607	0
bin	1609	0
bin	1611	0
bin	1613	0
bin	1615	0
bin	1617	0
bin	1619	0
bin	1621	0
bin	1623	0
bin	1625	0
bin	1627	0
bin	1629	0
bin	1631	0
bin	1633	0
bin	1635	0
bin	1637	0
bin	1639	0
bin	1641	0
bin	1643	0
bin	1645	0
bin	1647	0
bin	1649	0
bin	1651	0
bin	1653	0
bin	1655	0
bin	1657	0
bin	1659	1
bin	1661	0
scalar Net5.rte[4].queue[2] txBytes:count 1261
attr interpolationmode none
attr title "transmitting packet byte length, count"
attr unit bytes
scalar Net5.rte[4].queue[2] txBytes:sum 1891820
attr interpolationmode none
attr title "transmitting packet byte length, sum"
attr unit bytes
statistic Net5.rte[4].queue[2] txBytes:histogram
field count 1261
field mean 1500.2537668517
field stddev 4.2834856937549
field min 1500
field max 1590
field sum 1891820
field sqrsum 2838233200
attr interpolationmode none
attr title "transmitting packet byte length, histogram"
attr unit bytes
bin	-inf	0
bin	1499	1256
bin	1501	0
bin	1503	0
bin	1505	0
bin	1507	0
bin	1509	0
bin	1511	0
bin	1513	0
bin	1515	0
bin	1517	0
bin	1519	0
bin	1521	0
bin	1523	0
bin	1525	0
bin	1527	0
bin	1529	1
bin	1531	0
bin	1533	0
bin	1535	0
bin	1537	0
bin	1539	0
bin	1541	0
bin	1543	0
bin	1545	0
bin	1547	0
bin	1549	1
bin	1551	0
bin	1553	0
bin	1555	0
bin	1557	0
bin	1559	1
bin	1561	0
bin	1563	0
bin	1565	0
bin	1567	0
bin	1569	0
bin	1571	0
bin	1573	0
bin	1575	0
bin	1577	0
bin	1579	0
bin	1581	0
bin	1583	0
bin	1585	0
bin	1587	0
bin	1589	2
bin	1591	0
scalar Net5.rte[4].queue[2] busy:timeavg 0.03449784030595
attr interpolationmode sample-hold
attr title "server busy state, timeavg"
scalar Net5.rte[4].queue[2] qlen:timeavg 0.052447571447792
attr interpolationmode sample-hold
attr title "queue length, timeavg"
scalar Net5.rte[4].queue[2] qlen:max 18
attr interpolationmode sample-hold
attr title "queue length, max"
scalar Net5.rte[4].queue[2] drop:count 0
attr interpolationmode none
attr title "dropped packet byte length, count"
attr unit bytes
scalar Net5.rte[4].queue[2] drop:sum 0
attr interpolationmode none
attr title "dropped packet byte length, sum"
attr unit bytes
scalar Net5.rte[4].queue[3] rxBytes:count 491
attr interpolationmode none
attr title "received packet byte length, count"
attr unit bytes
scalar Net5.rte[4].queue[3] rxBytes:sum 736570
attr interpolationmode none
attr title "received packet byte length, sum"
attr unit bytes
statistic Net5.rte[4].queue[3] rxBytes:histogram
field count 491
field mean 1500.1425661914
field stddev 3.1590557768683
field min 1500
field max 1570
field sum 736570
field sqrsum 1104964900
attr interpolationmode none
attr title "received packet byte length, histogram"
attr unit bytes
bin	-inf	0
bin	1499	0
bin	1500	490
bin	1501	0
bin	1502	0
bin	1503	0
bin	1504	0
bin	1505	0
bin	1506	0
bin	1507	0
bin	1508	0
bin	1509	0
bin	1510	0
bin	1511	0
bin	1512	0
bin	1513	0
bin	1514	0
bin	1515	0
bin	1516	0
bin	1517	0
bin	1518	0
bin	1519	0
bin	1520	0
bin	1521	0
bin	1522	0
bin	1523	0
bin	1524	0
bin	1525	0
bin	1526	0
bin	1527	0
bin	1528	0
bin	1529	0
bin	1530	0
bin	1531	0
bin	1532	0
bin	1533	0
bin	1534	0
bin	1535	0
bin	1536	0
bin	1537	0
bin	1538	0
bin	1539	0
bin	1540	0
bin	1541	0
bin	1542	0
bin	1543	0
bin	1544	0
bin	1545	0
bin	1546	0
bin	1547	0
bin	1548	0
bin	1549	0
bin	1550	0
bin	1551	0
bin	1552	0
bin	1553	0
bin	1554	0
bin	1555	0
bin	1556	0
bin	1557	0
bin	1558	0
bin	1559	0
bin	1560	0
bin	1561	0
bin	1562	0
bin	1563	0
bin	1564	0
bin	1565	0
bin	1566	0
bin	1567	0
bin	1568	0
bin	1569	0
bin	1570	1
bin	1571	0
scalar Net5.rte[4].queue[3] txBytes:count 671
attr interpolationmode none
attr title "transmitting packet byte length, count"
attr unit bytes
scalar Net5.rte[4].queue[3] txBytes:sum 1006700
attr interpolationmode none
attr title "transmitting packet byte length, sum"
attr unit bytes
statistic Net5.rte[4].queue[3] txBytes:histogram
field count 671
field mean 1500.2980625931
field stddev 4.9985650898422
field min 1500
field max 1600
field sum 1006700
field sqrsum 1510366800
attr interpolationmode none
attr title "transmitting packet byte length, histogram"
attr unit bytes
bin	-inf	0
bin	1499	668
bin	1501	0
bin	1503	0
bin	1505	0
bin	1507	0
bin	1509	0
bin	1511	0
bin	1513	0
bin	1515	0
bin	1517	0
bin	1519	1
bin	1521	0
bin	1523	0
bin	1525	0
bin	1527	0
bin	1529	0
bin	1531	0
bin	1533	0
bin	1535	0
bin	1537	0
bin	1539	0
bin	1541	0
bin	1543	0
bin	1545	0
bin	1547	0
bin	1549	0
bin	1551	0
bin	1553	0
bin	1555	0
bin	1557	0
bin	1559	0
bin	1561	0
bin	1563	0
bin	1565	0
bin	1567	0
bin	1569	0
bin	1571	0
bin	1573	0
bin	1575	0
bin	1577	0
bin	1579	1
bin	1581	0
bin	1583	0
bin	1585	0
bin	1587	0
bin	1589	0
bin	1591	0
bin	1593	0
bin	1595	0
bin	1597	0
bin	1599	1
bin	1601	0
scalar Net5.rte[4].queue[3] busy:timeavg 0.018357441953261
attr interpolationmode sample-hold
attr title "server busy state, timeavg"
scalar Net5.rte[4].queue[3] qlen:timeavg 0.070296544968349
attr interpolationmode sample-hold
attr title "queue length, timeavg"
scalar Net5.rte[4].queue[3] qlen:max 20
attr interpolationmode sample-hold
attr title "queue length, max"
scalar Net5.rte[4].queue[3] drop:count 0
attr interpolationmode none
attr title "dropped packet byte length, count"
attr unit bytes
scalar Net5.rte[4].queue[3] drop:sum 0
attr interpolationmode none
attr title "dropped packet byte length, sum"
attr unit bytes
scalar Net5.rte[4].queue[4] rxBytes:count 818
attr interpolationmode none
attr title "received packet byte length, count"
attr unit bytes
scalar Net5.rte[4].queue[4] rxBytes:sum 1227220
attr interpolationmode none
attr title "received packet byte length, sum"
attr unit bytes
statistic Net5.rte[4].queue[4] rxBytes:histogram
field count 818
field mean 1500.2689486553
field stddev 4.5536152255849
field min 1500
field max 1590
field sum 1227220
field sqrsum 1841177000
attr interpolationmode none
attr title "received packet byte length, histogram"
attr unit bytes
bin	-inf	0
bin	1499	815
bin	1501	0
bin	1503	0
bin	1505	0
bin	1507	0
bin	1509	0
bin	1511	0
bin	1513	0
bin	1515	0
bin	1517	0
bin	1519	0
bin	1521	0
bin	1523	0
bin	1525	0
bin	1527	0
bin	1529	0
bin	1531	0
bin	1533	0
bin	1535	0
bin	1537	0
bin	1539	0
bin	1541	0
bin	1543	0
bin	1545	0
bin	1547	0
bin	1549	1
bin	1551	0
bin	1553	0
bin	1555	0
bin	1557	0
bin	1559	0
bin	1561	0
bin	1563	0
bin	1565	0
bin	1567	0
bin	1569	0
bin	1571	0
bin	1573	0
bin	1575	0
bin	1577	0
bin	1579	1
bin	1581	0
bin	1583	0
bin	1585	0
bin	1587	0
bin	1589	1
bin	1591	0
scalar Net5.rte[4].queue[4] txBytes:count 857
attr interpolationmode none
attr title "transmitting packet byte length, count"
attr unit bytes
scalar Net5.rte[4].queue[4] txBytes:sum 1285990
attr interpolationmode none
attr title "transmitting packet byte length, sum"
attr unit bytes
statistic Net5.rte[4].queue[4] txBytes:histogram
field count 857
field mean 1500.5717619603
field stddev 7.8701373237467
field min 1500
field max 1660
field sum 1285990
field sqrsum 1929773300
attr interpolationmode none
attr title "transmitting packet byte length, histogram"
attr unit bytes
bin	-inf	0
bin	1499	851
bin	1502	0
bin	1505	0
bin	1508	0
bin	1511	0
bin	1514	0
bin	1517	0
bin	1520	1
bin	1523	0
bin	1526	0
bin	1529	0
bin	1532	0
bin	1535	0
bin	1538	1
bin	1541	0
bin	1544	0
bin	1547	0
bin	1550	0
bin	1553	0
bin	1556	0
bin	1559	0
bin	1562	0
bin	1565	0
bin	1568	1
bin	1571	0
bin	1574	0
bin	1577	0
bin	1580	1
bin	1583	0
bin	1586	0
bin	1589	0
bin	1592	0
bin	1595	0
bin	1598	0
bin	1601	0
bin	1604	0
bin	1607	0
bin	1610	0
bin	1613	0
bin	1616	0
bin	1619	1
bin	1622	0
bin	1625	0
bin	1628	0
bin	1631	0
bin	1634	0
bin	1637	0
bin	1640	0
bin	1643	0
bin	1646	0
bin	1649	0
bin	1652	0
bin	1655	0
bin	1658	1
bin	1661	0
scalar Net5.rte[4].queue[4] busy:timeavg 0.023450369303107
attr interpolationmode sample-hold
attr title "server busy state, timeavg"
scalar Net5.rte[4].queue[4] qlen:timeavg 0.1119312873057
attr interpolationmode sample-hold
attr title "queue length, timeavg"
scalar Net5.rte[4].queue[4] qlen:max 26
attr interpolationmode sample-hold
attr title "queue length, max"
scalar Net5.rte[4].queue[4] drop:count 0
attr interpolationmode none
attr title "dropped packet byte length, count"
attr unit bytes
scalar Net5.rte[4].queue[4] drop:sum 0
attr interpolationmode none
attr title "dropped packet byte length, sum"
attr unit bytes
scalar Net5.rte[5].app hopCount:mean 3.0304612706701
attr interpolationmode none
attr title "hop count of arrived packets, mean"
scalar Net5.rte[5].app hopCount:max 4
attr interpolationmode none
attr title "hop count of arrived packets, max"
scalar Net5.rte[5].app endToEndDelay:mean 0.31130332699856
attr interpolationmode none
attr title "end-to-end delay of arrived packets, mean"
attr unit s
scalar Net5.rte[5].app endToEndDelay:max 0.457363642022
attr interpolationmode none
attr title "end-to-end delay of arrived packets, max"
attr unit s
statistic Net5.rte[5].routing outputIf:histogram
field count 3406
field mean 0.58396946564885
field stddev 1.5054950481608
field min -1
field max 3
field sum 1989
field sqrsum 8879
attr interpolationmode none
attr title "output interface for each routed packet, histogram"
bin	-inf	0
bin	-2	0
bin	-1	1149
bin	0	841
bin	1	268
bin	2	574
bin	3	574
bin	4	0
scalar Net5.rte[5].routing drop:count 0
attr interpolationmode none
attr title "dropped packet byte length, count"
attr unit bytes
scalar Net5.rte[5].routing drop:sum 0
attr interpolationmode none
attr title "dropped packet byte length, sum"
attr unit bytes
scalar Net5.rte[5].queue[0] rxBytes:count 834
attr interpolationmode none
attr title "received packet byte length, count"
attr unit bytes
scalar Net5.rte[5].queue[0] rxBytes:sum 1251210
attr interpolationmode none
attr title "received packet byte length, sum"
attr unit bytes
statistic Net5.rte[5].queue[0] rxBytes:histogram
field count 834
field mean 1500.2517985612
field stddev 3.5751446720709
field min 1500
field max 1580
field sum 1251210
field sqrsum 1877140700
attr interpolationmode none
attr title "received packet byte length, histogram"
attr unit bytes
bin	-inf	0
bin	1499	0
bin	1500	828
bin	1501	0
bin	1502	0
bin	1503	0
bin	1504	0
bin	1505	0
bin	1506	0
bin	1507	0
bin	1508	0
bin	1509	0
bin	1510	2
bin	1511	0
bin	1512	0
bin	1513	0
bin	1514	0
bin	1515	0
bin	1516	0
bin	1517	0
bin	1518	0
bin	1519	0
bin	1520	0
bin	1521	0
bin	1522	0
bin	1523	0
bin	1524	0
bin	1525	0
bin	1526	0
bin	1527	0
bin	1528	0
bin	1529	0
bin	1530	1
bin	1531	0
bin	1532	0
bin	1533	0
bin	1534	0
bin	1535	0
bin	1536	0
bin	1537	0
bin	1538	0
bin	1539	0
bin	1540	2
bin	1541	0
bin	1542	0
bin	1543	0
bin	1544	0
bin	1545	0
bin	1546	0
bin	1547	0
bin	1548	0
bin	1549	0
bin	1550	0
bin	1551	0
bin	1552	0
bin	1553	0
bin	1554	0
bin	1555	0
bin	1556	0
bin	1557	0
bin	1558	0
bin	1559	0
bin	1560	0
bin	1561	0
bin	1562	0
bin	1563	0
bin	1564	0
bin	1565	0
bin	1566	0
bin	1567	0
bin	1568	0
bin	1569	0
bin	1570	0
bin	1571	0
bin	1572	0
bin	1573	0
bin	1574	0
bin	1575	0
bin	1576	0
bin	1577	0
bin	1578	0
bin	1579	0
bin	1580	1
bin	1581	0
scalar Net5.rte[5].queue[0] txBytes:count 841
attr interpolationmode none
attr title "transmitting packet byte length, count"
attr unit bytes
scalar Net5.rte[5].queue[0] txBytes:sum 1261720
attr interpolationmode none
attr title "transmitting packet byte length, sum"
attr unit bytes
statistic Net5.rte[5].queue[0] txBytes:histogram
field count 841
field mean 1500.2615933413
field stddev 4.189335875461
field min 1500
field max 1570
field sum 1261720
field sqrsum 1892924800
attr interpolationmode none
attr title "transmitting packet byte length, histogram"
attr unit bytes
bin	-inf	0
bin	1499	0
bin	1500	837
bin	1501	0
bin	1502	0
bin	1503	0
bin	1504	0
bin	1505	0
bin	1506	0
bin	1507	0
bin	1508	0
bin	1509	0
bin	1510	1
bin	1511	0
bin	1512	0
bin	1513	0
bin	1514	0
bin	1515	0
bin	1516	0
bin	1517	0
bin	1518	0
bin	1519	0
bin	1520	0
bin	1521	0
bin	1522	0
bin	1523	0
bin	1524	0
bin	1525	0
bin	1526	0
bin	1527	0
bin	1528	0
bin	1529	0
bin	1530	0
bin	1531	0
bin	1532	0
bin	1533	0
bin	1534	0
bin	1535	0
bin	1536	0
bin	1537	0
bin	1538	0
bin	1539	0
bin	1540	0
bin	1541	0
bin	1542	0
bin	1543	0
bin	1544	0
bin	1545	0
bin	1546	0
bin	1547	0
bin	1548	0
bin	1549	0
bin	1550	0
bin	1551	0
bin	1552	0
bin	1553	0
bin	1554	0
bin	1555	0
bin	1556	0
bin	1557	0
bin	1558	0
bin	1559	0
bin	1560	0
bin	1561	0
bin	1562	0
bin	1563	0
bin	1564	0
bin	1565	0
bin	1566	0
bin	1567	0
bin	1568	0
bin	1569	0
bin	1570	3
bin	1571	0
scalar Net5.rte[5].queue[0] busy:timeavg 0.023007799405218
attr interpolationmode sample-hold
attr title "server busy state, timeavg"
scalar Net5.rte[5].queue[0] qlen:timeavg 0.18720989798371
attr interpolationmode sample-hold
attr title "queue length, timeavg"
scalar Net5.rte[5].queue[0] qlen:max 34
attr interpolationmode sample-hold
attr title "queue length, max"
scalar Net5.rte[5].queue[0] drop:count 0
attr interpolationmode none
attr title "dropped packet byte length, count"
attr unit bytes
scalar Net5.rte[5].queue[0] drop:sum 0
attr interpolationmode none
attr title "dropped packet byte length, sum"
attr unit bytes
scalar Net5.rte[5].queue[1] rxBytes:count 184
attr interpolationmode none
attr title "received packet byte length, count"
attr unit bytes
scalar Net5.rte[5].queue[1] rxBytes:sum 276000
attr interpolationmode none
attr title "received packet byte length, sum"
attr unit bytes
statistic Net5.rte[5].queue[1] rxBytes:histogram
field count 184
field mean 1500
field stddev 0
field min 1500
field max 1500
field sum 276000
field sqrsum 414000000
attr interpolationmode none
attr title "received packet byte length, histogram"
attr unit bytes
bin	-inf	0
bin	1499	0
bin	1500	184
bin	1501	0
scalar Net5.rte[5].queue[1] txBytes:count 268
attr interpolationmode none
attr title "transmitting packet byte length, count"
attr unit bytes
scalar Net5.rte[5].queue[1] txBytes:sum 402030
attr interpolationmode none
attr title "transmitting packet byte length, sum"
attr unit bytes
statistic Net5.rte[5].queue[1] txBytes:histogram
field count 268
field mean 1500.1119402985
field stddev 1.8325416652846
field min 1500
field max 1530
field sum 402030
field sqrsum 603090900
attr interpolationmode none
attr title "transmitting packet byte length, histogram"
attr unit bytes
bin	-inf	0
bin	1499	0
bin	1500	267
bin	1501	0
bin	1502	0
bin	1503	0
bin	1504	0
bin	1505	0
bin	1506	0
bin	1507	0
bin	1508	0
bin	1509	0
bin	1510	0
bin	1511	0
bin	1512	0
bin	1513	0
bin	1514	0
bin	1515	0
bin	1516	0
bin	1517	0
bin	1518	0
bin	1519	0
bin	1520	0
bin	1521	0
bin	1522	0
bin	1523	0
bin	1524	0
bin	1525	0
bin	1526	0
bin	1527	0
bin	1528	0
bin	1529	0
bin	1530	1
bin	1531	0
scalar Net5.rte[5].queue[1] busy:timeavg 0.0073311238586129
attr interpolationmode sample-hold
attr title "server busy state, timeavg"
scalar Net5.rte[5].queue[1] qlen:timeavg 0.030349262753866
attr interpolationmode sample-hold
attr title "queue length, timeavg"
scalar Net5.rte[5].queue[1] qlen:max 14
attr interpolationmode sample-hold
attr title "queue length, max"
scalar Net5.rte[5].queue[1] drop:count 0
attr interpolationmode none
attr title "dropped packet byte length, count"
attr unit bytes
scalar Net5.rte[5].queue[1] drop:sum 0
attr interpolationmode none
attr title "dropped packet byte length, sum"
attr unit bytes
scalar Net5.rte[5].queue[2] rxBytes:count 618
attr interpolationmode none
attr title "received packet byte length, count"
attr unit bytes
scalar Net5.rte[5].queue[2] rxBytes:sum 927460
attr interpolationmode none
attr title "received packet byte length, sum"
attr unit bytes
statistic Net5.rte[5].queue[2] rxBytes:histogram
field count 618
field mean 1500.7443365696
field stddev 7.8331056968995
field min 1500
field max 1630
field sum 927460
field sqrsum 1391918200
attr interpolationmode none
attr title "received packet byte length, histogram"
attr unit bytes
bin	-inf	0
bin	1499	609
bin	1501	0
bin	1503	0
bin	1505	0
bin	1507	0
bin	1509	2
bin	1511	0
bin	1513	0
bin	1515	0
bin	1517	0
bin	1519	2
bin	1521	0
bin	1523	0
bin	1525	0
bin	1527	0
bin	1529	1
bin	1531	0
bin	1533	0
bin	1535	0
bin	1537	0
bin	1539	0
bin	1541	0
bin	1543	0
bin	1545	0
bin	1547	0
bin	1549	0
bin	1551	0
bin	1553	0
bin	1555	0
bin	1557	0
bin	1559	0
bin	1561	0
bin	1563	0
bin	1565	0
bin	1567	0
bin	1569	1
bin	1571	0
bin	1573	0
bin	1575	0
bin	1577	0
bin	1579	1
bin	1581	0
bin	1583	0
bin	1585	0
bin	1587	0
bin	1589	1
bin	1591	0
bin	1593	0
bin	1595	0
bin	1597	0
bin	1599	0
bin	1601	0
bin	1603	0
bin	1605	0
bin	1607	0
bin	1609	0
bin	1611	0
bin	1613	0
bin	1615	0
bin	1617	0
bin	1619	0
bin	1621	0
bin	1623	0
bin	1625	0
bin	1627	0
bin	1629	1
bin	1631	0
scalar Net5.rte[5].queue[2] txBytes:count 574
attr interpolationmode none
attr title "transmitting packet byte length, count"
attr unit bytes
scalar Net5.rte[5].queue[2] txBytes:sum 861120
attr interpolationmode none
attr title "transmitting packet byte length, sum"
attr unit bytes
statistic Net5.rte[5].queue[2] txBytes:histogram
field count 574
field mean 1500.2090592334
field stddev 2.9465609534145
field min 1500
field max 1550
field sum 861120
field sqrsum 1291865000
attr interpolationmode none
attr title "transmitting packet byte length, histogram"
attr unit bytes
bin	-inf	0
bin	1499	0
bin	1500	571
bin	1501	0
bin	1502	0
bin	1503	0
bin	1504	0
bin	1505	0
bin	1506	0
bin	1507	0
bin	1508	0
bin	1509	0
bin	1510	0
bin	1511	0
bin	1512	0
bin	1513	0
bin	1514	0
bin	1515	0
bin	1516	0
bin	1517	0
bin	1518	0
bin	1519	0
bin	1520	0
bin	1521	0
bin	1522	0
bin	1523	0
bin	1524	0
bin	1525	0
bin	1526	0
bin	1527	0
bin	1528	0
bin	1529	0
bin	1530	1
bin	1531	0
bin	1532	0
bin	1533	0
bin	1534	0
bin	1535	0
bin	1536	0
bin	1537	0
bin	1538	0
bin	1539	0
bin	1540	1
bin	1541	0
bin	1542	0
bin	1543	0
bin	1544	0
bin	1545	0
bin	1546	0
bin	1547	0
bin	1548	0
bin	1549	0
bin	1550	1
bin	1551	0
[...]
attr title "server busy state, timeavg"
scalar Net5.rte[97].queue[2] qlen:timeavg 0.041257475442289
attr interpolationmode sample-hold
attr title "queue length, timeavg"
scalar Net5.rte[97].queue[2] qlen:max 15
attr interpolationmode sample-hold
attr title "queue length, max"
scalar Net5.rte[97].queue[2] drop:count 0
attr interpolationmode none
attr title "dropped packet byte length, count"
attr unit bytes
scalar Net5.rte[97].queue[2] drop:sum 0
attr interpolationmode none
attr title "dropped packet byte length, sum"
attr unit bytes
scalar Net5.rte[97].queue[3] rxBytes:count 494
attr interpolationmode none
attr title "received packet byte length, count"
attr unit bytes
scalar Net5.rte[97].queue[3] rxBytes:sum 741250
attr interpolationmode none
attr title "received packet byte length, sum"
attr unit bytes
statistic Net5.rte[97].queue[3] rxBytes:histogram
field count 494
field mean 1500.5060728745
field stddev 6.170906315077
field min 1500
field max 1600
field sum 741250
field sqrsum 1112268900
attr interpolationmode none
attr title "received packet byte length, histogram"
attr unit bytes
bin	-inf	0
bin	1499	490
bin	1501	0
bin	1503	0
bin	1505	0
bin	1507	0
bin	1509	0
bin	1511	0
bin	1513	0
bin	1515	0
bin	1517	0
bin	1519	0
bin	1521	0
bin	1523	0
bin	1525	0
bin	1527	0
bin	1529	1
bin	1531	0
bin	1533	0
bin	1535	0
bin	1537	0
bin	1539	1
bin	1541	0
bin	1543	0
bin	1545	0
bin	1547	0
bin	1549	0
bin	1551	0
bin	1553	0
bin	1555	0
bin	1557	0
bin	1559	0
bin	1561	0
bin	1563	0
bin	1565	0
bin	1567	0
bin	1569	0
bin	1571	0
bin	1573	0
bin	1575	0
bin	1577	0
bin	1579	1
bin	1581	0
bin	1583	0
bin	1585	0
bin	1587	0
bin	1589	0
bin	1591	0
bin	1593	0
bin	1595	0
bin	1597	0
bin	1599	1
bin	1601	0
scalar Net5.rte[97].queue[3] txBytes:count 460
attr interpolationmode none
attr title "transmitting packet byte length, count"
attr unit bytes
scalar Net5.rte[97].queue[3] txBytes:sum 690180
attr interpolationmode none
attr title "transmitting packet byte length, sum"
attr unit bytes
statistic Net5.rte[97].queue[3] txBytes:histogram
field count 460
field mean 1500.3913043478
field stddev 5.5088689074222
field min 1500
field max 1600
field sum 690180
field sqrsum 1035554000
attr interpolationmode none
attr title "transmitting packet byte length, histogram"
attr unit bytes
bin	-inf	0
bin	1495	0
bin	1497	0
bin	1499	457
bin	1501	0
bin	1503	0
bin	1505	0
bin	1507	0
bin	1509	0
bin	1511	0
bin	1513	0
bin	1515	0
bin	1517	0
bin	1519	1
bin	1521	0
bin	1523	0
bin	1525	0
bin	1527	0
bin	1529	0
bin	1531	0
bin	1533	0
bin	1535	0
bin	1537	0
bin	1539	0
bin	1541	0
bin	1543	0
bin	1545	0
bin	1547	0
bin	1549	0
bin	1551	0
bin	1553	0
bin	1555	0
bin	1557	0
bin	1559	1
bin	1561	0
bin	1563	0
bin	1565	0
bin	1567	0
bin	1569	0
bin	1571	0
bin	1573	0
bin	1575	0
bin	1577	0
bin	1579	0
bin	1581	0
bin	1583	0
bin	1585	0
bin	1587	0
bin	1589	0
bin	1591	0
bin	1593	0
bin	1595	0
bin	1597	0
bin	1599	1
bin	1601	0
scalar Net5.rte[97].queue[3] busy:timeavg 0.01258561566235
attr interpolationmode sample-hold
attr title "server busy state, timeavg"
scalar Net5.rte[97].queue[3] qlen:timeavg 0.014782125181785
attr interpolationmode sample-hold
attr title "queue length, timeavg"
scalar Net5.rte[97].queue[3] qlen:max 9
attr interpolationmode sample-hold
attr title "queue length, max"
scalar Net5.rte[97].queue[3] drop:count 0
attr interpolationmode none
attr title "dropped packet byte length, count"
attr unit bytes
scalar Net5.rte[97].queue[3] drop:sum 0
attr interpolationmode none
attr title "dropped packet byte length, sum"
attr unit bytes
scalar Net5.rte[97].queue[4] rxBytes:count 661
attr interpolationmode none
attr title "received packet byte length, count"
attr unit bytes
scalar Net5.rte[97].queue[4] rxBytes:sum 991660
attr interpolationmode none
attr title "received packet byte length, sum"
attr unit bytes
statistic Net5.rte[97].queue[4] rxBytes:histogram
field count 661
field mean 1500.2420574887
field stddev 4.5329217953436
field min 1500
field max 1600
field sum 991660
field sqrsum 1487743600
attr interpolationmode none
attr title "received packet byte length, histogram"
attr unit bytes
bin	-inf	0
bin	1499	659
bin	1501	0
bin	1503	0
bin	1505	0
bin	1507	0
bin	1509	0
bin	1511	0
bin	1513	0
bin	1515	0
bin	1517	0
bin	1519	0
bin	1521	0
bin	1523	0
bin	1525	0
bin	1527	0
bin	1529	0
bin	1531	0
bin	1533	0
bin	1535	0
bin	1537	0
bin	1539	0
bin	1541	0
bin	1543	0
bin	1545	0
bin	1547	0
bin	1549	0
bin	1551	0
bin	1553	0
bin	1555	0
bin	1557	0
bin	1559	1
bin	1561	0
bin	1563	0
bin	1565	0
bin	1567	0
bin	1569	0
bin	1571	0
bin	1573	0
bin	1575	0
bin	1577	0
bin	1579	0
bin	1581	0
bin	1583	0
bin	1585	0
bin	1587	0
bin	1589	0
bin	1591	0
bin	1593	0
bin	1595	0
bin	1597	0
bin	1599	1
bin	1601	0
scalar Net5.rte[97].queue[4] txBytes:count 444
attr interpolationmode none
attr title "transmitting packet byte length, count"
attr unit bytes
scalar Net5.rte[97].queue[4] txBytes:sum 666040
attr interpolationmode none
attr title "transmitting packet byte length, sum"
attr unit bytes
statistic Net5.rte[97].queue[4] txBytes:histogram
field count 444
field mean 1500.0900900901
field stddev 1.8983159915063
field min 1500
field max 1540
field sum 666040
field sqrsum 999121600
attr interpolationmode none
attr title "transmitting packet byte length, histogram"
attr unit bytes
bin	-inf	0
bin	1499	0
bin	1500	443
bin	1501	0
bin	1502	0
bin	1503	0
bin	1504	0
bin	1505	0
bin	1506	0
bin	1507	0
bin	1508	0
bin	1509	0
bin	1510	0
bin	1511	0
bin	1512	0
bin	1513	0
bin	1514	0
bin	1515	0
bin	1516	0
bin	1517	0
bin	1518	0
bin	1519	0
bin	1520	0
bin	1521	0
bin	1522	0
bin	1523	0
bin	1524	0
bin	1525	0
bin	1526	0
bin	1527	0
bin	1528	0
bin	1529	0
bin	1530	0
bin	1531	0
bin	1532	0
bin	1533	0
bin	1534	0
bin	1535	0
bin	1536	0
bin	1537	0
bin	1538	0
bin	1539	0
bin	1540	1
bin	1541	0
scalar Net5.rte[97].queue[4] busy:timeavg 0.012145416349007
attr interpolationmode sample-hold
attr title "server busy state, timeavg"
scalar Net5.rte[97].queue[4] qlen:timeavg 0.0059558436306427
attr interpolationmode sample-hold
attr title "queue length, timeavg"
scalar Net5.rte[97].queue[4] qlen:max 6
attr interpolationmode sample-hold
attr title "queue length, max"
scalar Net5.rte[97].queue[4] drop:count 0
attr interpolationmode none
attr title "dropped packet byte length, count"
attr unit bytes
scalar Net5.rte[97].queue[4] drop:sum 0
attr interpolationmode none
attr title "dropped packet byte length, sum"
attr unit bytes
scalar Net5.rte[97].queue[5] rxBytes:count 395
attr interpolationmode none
attr title "received packet byte length, count"
attr unit bytes
scalar Net5.rte[97].queue[5] rxBytes:sum 592500
attr interpolationmode none
attr title "received packet byte length, sum"
attr unit bytes
statistic Net5.rte[97].queue[5] rxBytes:histogram
field count 395
field mean 1500
field stddev 0
field min 1500
field max 1500
field sum 592500
field sqrsum 888750000
attr interpolationmode none
attr title "received packet byte length, histogram"
attr unit bytes
bin	-inf	0
bin	1499	0
bin	1500	395
bin	1501	0
scalar Net5.rte[97].queue[5] txBytes:count 382
attr interpolationmode none
attr title "transmitting packet byte length, count"
attr unit bytes
scalar Net5.rte[97].queue[5] txBytes:sum 573030
attr interpolationmode none
attr title "transmitting packet byte length, sum"
attr unit bytes
statistic Net5.rte[97].queue[5] txBytes:histogram
field count 382
field mean 1500.0785340314
field stddev 1.5349335303028
field min 1500
field max 1530
field sum 573030
field sqrsum 859590900
attr interpolationmode none
attr title "transmitting packet byte length, histogram"
attr unit bytes
bin	-inf	0
bin	1499	0
bin	1500	381
bin	1501	0
bin	1502	0
bin	1503	0
bin	1504	0
bin	1505	0
bin	1506	0
bin	1507	0
bin	1508	0
bin	1509	0
bin	1510	0
bin	1511	0
bin	1512	0
bin	1513	0
bin	1514	0
bin	1515	0
bin	1516	0
bin	1517	0
bin	1518	0
bin	1519	0
bin	1520	0
bin	1521	0
bin	1522	0
bin	1523	0
bin	1524	0
bin	1525	0
bin	1526	0
bin	1527	0
bin	1528	0
bin	1529	0
bin	1530	1
bin	1531	0
scalar Net5.rte[97].queue[5] busy:timeavg 0.010449354288739
attr interpolationmode sample-hold
attr title "server busy state, timeavg"
scalar Net5.rte[97].queue[5] qlen:timeavg 0.014347677335889
attr interpolationmode sample-hold
attr title "queue length, timeavg"
scalar Net5.rte[97].queue[5] qlen:max 8
attr interpolationmode sample-hold
attr title "queue length, max"
scalar Net5.rte[97].queue[5] drop:count 0
attr interpolationmode none
attr title "dropped packet byte length, count"
attr unit bytes
scalar Net5.rte[97].queue[5] drop:sum 0
attr interpolationmode none
attr title "dropped packet byte length, sum"
attr unit bytes
scalar Net5.rte[98].app hopCount:mean 3.5806451612903
attr interpolationmode none
attr title "hop count of arrived packets, mean"
scalar Net5.rte[98].app hopCount:max 5
attr interpolationmode none
attr title "hop count of arrived packets, max"
scalar Net5.rte[98].app endToEndDelay:mean 0.40783073351676
attr interpolationmode none
attr title "end-to-end delay of arrived packets, mean"
attr unit s
scalar Net5.rte[98].app endToEndDelay:max 0.697247138316
attr interpolationmode none
attr title "end-to-end delay of arrived packets, max"
attr unit s
statistic Net5.rte[98].routing outputIf:histogram
field count 2216
field mean -0.29557761732852
field stddev 0.80780522557137
field min -1
field max 1
field sum -655
field sqrsum 1639
attr interpolationmode none
attr title "output interface for each routed packet, histogram"
bin	-inf	0
bin	-2	0
bin	-1	1147
bin	0	577
bin	1	492
bin	2	0
scalar Net5.rte[98].routing drop:count 0
attr interpolationmode none
attr title "dropped packet byte length, count"
attr unit bytes
scalar Net5.rte[98].routing drop:sum 0
attr interpolationmode none
attr title "dropped packet byte length, sum"
attr unit bytes
scalar Net5.rte[98].queue[0] rxBytes:count 728
attr interpolationmode none
attr title "received packet byte length, count"
attr unit bytes
scalar Net5.rte[98].queue[0] rxBytes:sum 1092210
attr interpolationmode none
attr title "received packet byte length, sum"
attr unit bytes
statistic Net5.rte[98].queue[0] rxBytes:histogram
field count 728
field mean 1500.2884615385
field stddev 4.5179487799925
field min 1500
field max 1580
field sum 1092210
field sqrsum 1638644900
attr interpolationmode none
attr title "received packet byte length, histogram"
attr unit bytes
bin	-inf	0
bin	1499	0
bin	1500	725
bin	1501	0
bin	1502	0
bin	1503	0
bin	1504	0
bin	1505	0
bin	1506	0
bin	1507	0
bin	1508	0
bin	1509	0
bin	1510	0
bin	1511	0
bin	1512	0
bin	1513	0
bin	1514	0
bin	1515	0
bin	1516	0
bin	1517	0
bin	1518	0
bin	1519	0
bin	1520	0
bin	1521	0
bin	1522	0
bin	1523	0
bin	1524	0
bin	1525	0
bin	1526	0
bin	1527	0
bin	1528	0
bin	1529	0
bin	1530	0
bin	1531	0
bin	1532	0
bin	1533	0
bin	1534	0
bin	1535	0
bin	1536	0
bin	1537	0
bin	1538	0
bin	1539	0
bin	1540	0
bin	1541	0
bin	1542	0
bin	1543	0
bin	1544	0
bin	1545	0
bin	1546	0
bin	1547	0
bin	1548	0
bin	1549	0
bin	1550	0
bin	1551	0
bin	1552	0
bin	1553	0
bin	1554	0
bin	1555	0
bin	1556	0
bin	1557	0
bin	1558	0
bin	1559	0
bin	1560	1
bin	1561	0
bin	1562	0
bin	1563	0
bin	1564	0
bin	1565	0
bin	1566	0
bin	1567	0
bin	1568	0
bin	1569	0
bin	1570	1
bin	1571	0
bin	1572	0
bin	1573	0
bin	1574	0
bin	1575	0
bin	1576	0
bin	1577	0
bin	1578	0
bin	1579	0
bin	1580	1
bin	1581	0
scalar Net5.rte[98].queue[0] txBytes:count 577
attr interpolationmode none
attr title "transmitting packet byte length, count"
attr unit bytes
scalar Net5.rte[98].queue[0] txBytes:sum 865640
attr interpolationmode none
attr title "transmitting packet byte length, sum"
attr unit bytes
statistic Net5.rte[98].queue[0] txBytes:histogram
field count 577
field mean 1500.2426343154
field stddev 3.8563690094816
field min 1500
field max 1570
field sum 865640
field sqrsum 1298678600
attr interpolationmode none
attr title "transmitting packet byte length, histogram"
attr unit bytes
bin	-inf	0
bin	1499	0
bin	1500	574
bin	1501	0
bin	1502	0
bin	1503	0
bin	1504	0
bin	1505	0
bin	1506	0
bin	1507	0
bin	1508	0
bin	1509	0
bin	1510	1
bin	1511	0
bin	1512	0
bin	1513	0
bin	1514	0
bin	1515	0
bin	1516	0
bin	1517	0
bin	1518	0
bin	1519	0
bin	1520	0
bin	1521	0
bin	1522	0
bin	1523	0
bin	1524	0
bin	1525	0
bin	1526	0
bin	1527	0
bin	1528	0
bin	1529	0
bin	1530	0
bin	1531	0
bin	1532	0
bin	1533	0
bin	1534	0
bin	1535	0
bin	1536	0
bin	1537	0
bin	1538	0
bin	1539	0
bin	1540	0
bin	1541	0
bin	1542	0
bin	1543	0
bin	1544	0
bin	1545	0
bin	1546	0
bin	1547	0
bin	1548	0
bin	1549	0
bin	1550	0
bin	1551	0
bin	1552	0
bin	1553	0
bin	1554	0
bin	1555	0
bin	1556	0
bin	1557	0
bin	1558	0
bin	1559	0
bin	1560	1
bin	1561	0
bin	1562	0
bin	1563	0
bin	1564	0
bin	1565	0
bin	1566	0
bin	1567	0
bin	1568	0
bin	1569	0
bin	1570	1
bin	1571	0
scalar Net5.rte[98].queue[0] busy:timeavg 0.01578517537737
attr interpolationmode sample-hold
attr title "server busy state, timeavg"
scalar Net5.rte[98].queue[0] qlen:timeavg 0.38272175595027
attr interpolationmode sample-hold
attr title "queue length, timeavg"
scalar Net5.rte[98].queue[0] qlen:max 53
attr interpolationmode sample-hold
attr title "queue length, max"
scalar Net5.rte[98].queue[0] drop:count 0
attr interpolationmode none
attr title "dropped packet byte length, count"
attr unit bytes
scalar Net5.rte[98].queue[0] drop:sum 0
attr interpolationmode none
attr title "dropped packet byte length, sum"
attr unit bytes
scalar Net5.rte[98].queue[1] rxBytes:count 476
attr interpolationmode none
attr title "received packet byte length, count"
attr unit bytes
scalar Net5.rte[98].queue[1] rxBytes:sum 714140
attr interpolationmode none
attr title "received packet byte length, sum"
attr unit bytes
statistic Net5.rte[98].queue[1] rxBytes:histogram
field count 476
field mean 1500.2941176471
field stddev 6.4168894791894
field min 1500
field max 1640
field sum 714140
field sqrsum 1071439600
attr interpolationmode none
attr title "received packet byte length, histogram"
attr unit bytes
bin	-inf	0
bin	1498	475
bin	1502	0
bin	1506	0
bin	1510	0
bin	1514	0
bin	1518	0
bin	1522	0
bin	1526	0
bin	1530	0
bin	1534	0
bin	1538	0
bin	1542	0
bin	1546	0
bin	1550	0
bin	1554	0
bin	1558	0
bin	1562	0
bin	1566	0
bin	1570	0
bin	1574	0
bin	1578	0
bin	1582	0
bin	1586	0
bin	1590	0
bin	1594	0
bin	1598	0
bin	1602	0
bin	1606	0
bin	1610	0
bin	1614	0
bin	1618	0
bin	1622	0
bin	1626	0
bin	1630	0
bin	1634	0
bin	1638	1
bin	1642	0
scalar Net5.rte[98].queue[1] txBytes:count 492
attr interpolationmode none
attr title "transmitting packet byte length, count"
attr unit bytes
scalar Net5.rte[98].queue[1] txBytes:sum 738030
attr interpolationmode none
attr title "transmitting packet byte length, sum"
attr unit bytes
statistic Net5.rte[98].queue[1] txBytes:histogram
field count 492
field mean 1500.0609756098
field stddev 1.3525044520581
field min 1500
field max 1530
field sum 738030
field sqrsum 1107090900
attr interpolationmode none
attr title "transmitting packet byte length, histogram"
attr unit bytes
bin	-inf	0
bin	1499	0
bin	1500	491
bin	1501	0
bin	1502	0
bin	1503	0
bin	1504	0
bin	1505	0
bin	1506	0
bin	1507	0
bin	1508	0
bin	1509	0
bin	1510	0
bin	1511	0
bin	1512	0
bin	1513	0
bin	1514	0
bin	1515	0
bin	1516	0
bin	1517	0
bin	1518	0
bin	1519	0
bin	1520	0
bin	1521	0
bin	1522	0
bin	1523	0
bin	1524	0
bin	1525	0
bin	1526	0
bin	1527	0
bin	1528	0
bin	1529	0
bin	1530	1
bin	1531	0
scalar Net5.rte[98].queue[1] busy:timeavg 0.013458173124826
attr interpolationmode sample-hold
attr title "server busy state, timeavg"
scalar Net5.rte[98].queue[1] qlen:timeavg 0.28682249377462
attr interpolationmode sample-hold
attr title "queue length, timeavg"
scalar Net5.rte[98].queue[1] qlen:max 46
attr interpolationmode sample-hold
attr title "queue length, max"
scalar Net5.rte[98].queue[1] drop:count 0
attr interpolationmode none
attr title "dropped packet byte length, count"
attr unit bytes
scalar Net5.rte[98].queue[1] drop:sum 0
attr interpolationmode none
attr title "dropped packet byte length, sum"
attr unit bytes
scalar Net5.rte[99].app hopCount:mean 4.1387684301821
attr interpolationmode none
attr title "hop count of arrived packets, mean"
scalar Net5.rte[99].app hopCount:max 6
attr interpolationmode none
attr title "hop count of arrived packets, max"
scalar Net5.rte[99].app endToEndDelay:mean 0.46351601452031
attr interpolationmode none
attr title "end-to-end delay of arrived packets, mean"
attr unit s
scalar Net5.rte[99].app endToEndDelay:max 0.696666666686
attr interpolationmode none
attr title "end-to-end delay of arrived packets, max"
attr unit s
statistic Net5.rte[99].routing outputIf:histogram
field count 2673
field mean -0.43135054246165
field stddev 0.49535749827871
field min -1
field max 0
field sum -1153
field sqrsum 1153
attr interpolationmode none
attr title "output interface for each routed packet, histogram"
bin	-inf	0
bin	-2	0
bin	-1	1153
bin	0	1520
bin	1	0
scalar Net5.rte[99].routing drop:count 0
attr interpolationmode none
attr title "dropped packet byte length, count"
attr unit bytes
scalar Net5.rte[99].routing drop:sum 0
attr interpolationmode none
attr title "dropped packet byte length, sum"
attr unit bytes
scalar Net5.rte[99].queue[0] rxBytes:count 1153
attr interpolationmode none
attr title "received packet byte length, count"
attr unit bytes
scalar Net5.rte[99].queue[0] rxBytes:sum 1729970
attr interpolationmode none
attr title "received packet byte length, sum"
attr unit bytes
statistic Net5.rte[99].queue[0] rxBytes:histogram
field count 1153
field mean 1500.4076322637
field stddev 6.5688403786516
field min 1500
field max 1690
field sum 1729970
field sqrsum 2595709900
attr interpolationmode none
attr title "received packet byte length, histogram"
attr unit bytes
bin	-inf	0
bin	1499	1145
bin	1503	0
bin	1507	1
bin	1511	0
bin	1515	0
bin	1519	1
bin	1523	0
bin	1527	0
bin	1531	0
bin	1535	0
bin	1539	3
bin	1543	0
bin	1547	0
bin	1551	0
bin	1555	0
bin	1559	1
bin	1563	0
bin	1567	1
bin	1571	0
bin	1575	0
bin	1579	0
bin	1583	0
bin	1587	0
bin	1591	0
bin	1595	0
bin	1599	0
bin	1603	0
bin	1607	0
bin	1611	0
bin	1615	0
bin	1619	0
bin	1623	0
bin	1627	0
bin	1631	0
bin	1635	0
bin	1639	0
bin	1643	0
bin	1647	0
bin	1651	0
bin	1655	0
bin	1659	0
bin	1663	0
bin	1667	0
bin	1671	0
bin	1675	0
bin	1679	0
bin	1683	0
bin	1687	1
bin	1691	0
scalar Net5.rte[99].queue[0] txBytes:count 1520
attr interpolationmode none
attr title "transmitting packet byte length, count"
attr unit bytes
scalar Net5.rte[99].queue[0] txBytes:sum 2280360
attr interpolationmode none
attr title "transmitting packet byte length, sum"
attr unit bytes
statistic Net5.rte[99].queue[0] txBytes:histogram
field count 1520
field mean 1500.2368421053
field stddev 4.5548906531894
field min 1500
field max 1630
field sum 2280360
field sqrsum 3421111600
attr interpolationmode none
attr title "transmitting packet byte length, histogram"
attr unit bytes
bin	-inf	0
bin	1499	1514
bin	1501	0
bin	1503	0
bin	1505	0
bin	1507	0
bin	1509	1
bin	1511	0
bin	1513	0
bin	1515	0
bin	1517	0
bin	1519	1
bin	1521	0
bin	1523	0
bin	1525	0
bin	1527	0
bin	1529	0
bin	1531	0
bin	1533	0
bin	1535	0
bin	1537	0
bin	1539	0
bin	1541	0
bin	1543	0
bin	1545	0
bin	1547	0
bin	1549	1
bin	1551	0
bin	1553	0
bin	1555	0
bin	1557	0
bin	1559	1
bin	1561	0
bin	1563	0
bin	1565	0
bin	1567	0
bin	1569	0
bin	1571	0
bin	1573	0
bin	1575	0
bin	1577	0
bin	1579	0
bin	1581	0
bin	1583	0
bin	1585	0
bin	1587	0
bin	1589	1
bin	1591	0
bin	1593	0
bin	1595	0
bin	1597	0
bin	1599	0
bin	1601	0
bin	1603	0
bin	1605	0
bin	1607	0
bin	1609	0
bin	1611	0
bin	1613	0
bin	1615	0
bin	1617	0
bin	1619	0
bin	1621	0
bin	1623	0
bin	1625	0
bin	1627	0
bin	1629	1
bin	1631	0
scalar Net5.rte[99].queue[0] busy:timeavg 0.041582970430629
attr interpolationmode sample-hold
attr title "server busy state, timeavg"
scalar Net5.rte[99].queue[0] qlen:timeavg 2.0158005321354
attr interpolationmode sample-hold
attr title "queue length, timeavg"
scalar Net5.rte[99].queue[0] qlen:max 99
attr interpolationmode sample-hold
attr title "queue length, max"
scalar Net5.rte[99].queue[0] drop:count 0
attr interpolationmode none
attr title "dropped packet byte length, count"
attr unit bytes
scalar Net5.rte[99].queue[0] drop:sum 0
attr interpolationmode none
attr title "dropped packet byte length, sum"
attr unit bytes

