version 2
run General-6-20190610-18:03:50-23448
attr configname General
attr datetime 20190610-18:03:50
attr experiment General
attr inifile omnetpp.ini
attr iterationvars ""
attr iterationvarsf ""
attr measurement ""
attr network networks.Net5
attr processid 23448
attr repetition 6
attr replication #6
attr resultdir results
attr runnumber 6
attr seedset 6
param **.appType "\"App\""
param **.app.packetLength "1500 bytes"
param **.app.totalNodes 10
param **.destAddresses "\"0\""
param **.sendIaTime "uniform(5s, 10s)"
param **.sendIaTimeEvil 10ms

scalar Net5.rte[0].app hopCount:mean 2.4636363636364
attr interpolationmode none
attr title "hop count of arrived packets, mean"
scalar Net5.rte[0].app hopCount:max 4
attr interpolationmode none
attr title "hop count of arrived packets, max"
scalar Net5.rte[0].app endToEndDelay:mean 0.25124769439861
attr interpolationmode none
attr title "end-to-end delay of arrived packets, mean"
attr unit s
scalar Net5.rte[0].app endToEndDelay:max 0.415000000003
attr interpolationmode none
attr title "end-to-end delay of arrived packets, max"
attr unit s
statistic Net5.rte[0].routing outputIf:histogram
field count 199
field mean -0.55276381909548
field stddev 0.49846218005678
field min -1
field max 0
field sum -110
field sqrsum 110
attr interpolationmode none
attr title "output interface for each routed packet, histogram"
bin	-inf	0
bin	-2	0
bin	-1	110
bin	0	89
bin	1	0
scalar Net5.rte[0].routing drop:count 0
attr interpolationmode none
attr title "dropped packet byte length, count"
attr unit bytes
scalar Net5.rte[0].routing drop:sum 0
attr interpolationmode none
attr title "dropped packet byte length, sum"
attr unit bytes
scalar Net5.rte[0].queue[0] rxBytes:count 110
attr interpolationmode none
attr title "received packet byte length, count"
attr unit bytes
scalar Net5.rte[0].queue[0] rxBytes:sum 165120
attr interpolationmode none
attr title "received packet byte length, sum"
attr unit bytes
statistic Net5.rte[0].queue[0] rxBytes:histogram
field count 110
field mean 1501.0909090909
field stddev 8.4966755015618
field min 1500
field max 1580
field sum 165120
field sqrsum 247868000
attr interpolationmode none
attr title "received packet byte length, histogram"
attr unit bytes
bin	-inf	0
bin	1499	0
bin	1500	108
bin	1501	0
bin	1502	0
bin	1503	0
bin	1504	0
bin	1505	0
bin	1506	0
bin	1507	0
bin	1508	0
bin	1509	0
bin	1510	0
bin	1511	0
bin	1512	0
bin	1513	0
bin	1514	0
bin	1515	0
bin	1516	0
bin	1517	0
bin	1518	0
bin	1519	0
bin	1520	0
bin	1521	0
bin	1522	0
bin	1523	0
bin	1524	0
bin	1525	0
bin	1526	0
bin	1527	0
bin	1528	0
bin	1529	0
bin	1530	0
bin	1531	0
bin	1532	0
bin	1533	0
bin	1534	0
bin	1535	0
bin	1536	0
bin	1537	0
bin	1538	0
bin	1539	0
bin	1540	1
bin	1541	0
bin	1542	0
bin	1543	0
bin	1544	0
bin	1545	0
bin	1546	0
bin	1547	0
bin	1548	0
bin	1549	0
bin	1550	0
bin	1551	0
bin	1552	0
bin	1553	0
bin	1554	0
bin	1555	0
bin	1556	0
bin	1557	0
bin	1558	0
bin	1559	0
bin	1560	0
bin	1561	0
bin	1562	0
bin	1563	0
bin	1564	0
bin	1565	0
bin	1566	0
bin	1567	0
bin	1568	0
bin	1569	0
bin	1570	0
bin	1571	0
bin	1572	0
bin	1573	0
bin	1574	0
bin	1575	0
bin	1576	0
bin	1577	0
bin	1578	0
bin	1579	0
bin	1580	1
bin	1581	0
scalar Net5.rte[0].queue[0] txBytes:count 89
attr interpolationmode none
attr title "transmitting packet byte length, count"
attr unit bytes
scalar Net5.rte[0].queue[0] txBytes:sum 133680
attr interpolationmode none
attr title "transmitting packet byte length, sum"
attr unit bytes
statistic Net5.rte[0].queue[0] txBytes:histogram
field count 89
field mean 1502.0224719101
field stddev 9.7909716391443
field min 1500
field max 1570
field sum 133680
field sqrsum 200798800
attr interpolationmode none
attr title "transmitting packet byte length, histogram"
attr unit bytes
bin	-inf	0
bin	1482	0
bin	1484	0
bin	1486	0
bin	1488	0
bin	1490	0
bin	1492	0
bin	1494	0
bin	1496	0
bin	1498	0
bin	1500	84
bin	1502	0
bin	1504	0
bin	1506	0
bin	1508	0
bin	1510	1
bin	1512	0
bin	1514	0
bin	1516	0
bin	1518	0
bin	1520	1
bin	1522	0
bin	1524	0
bin	1526	0
bin	1528	0
bin	1530	1
bin	1532	0
bin	1534	0
bin	1536	0
bin	1538	0
bin	1540	0
bin	1542	0
bin	1544	0
bin	1546	0
bin	1548	0
bin	1550	1
bin	1552	0
bin	1554	0
bin	1556	0
bin	1558	0
bin	1560	0
bin	1562	0
bin	1564	0
bin	1566	0
bin	1568	0
bin	1570	1
bin	1572	0
bin	1574	0
bin	1576	0
bin	1578	0
bin	1580	0
bin	1582	0
bin	1584	0
bin	1586	0
bin	1588	0
scalar Net5.rte[0].queue[0] busy:timeavg 0.0027435162045478
attr interpolationmode sample-hold
attr title "server busy state, timeavg"
scalar Net5.rte[0].queue[0] qlen:timeavg 0.0094200623721179
attr interpolationmode sample-hold
attr title "queue length, timeavg"
scalar Net5.rte[0].queue[0] qlen:max 9
attr interpolationmode sample-hold
attr title "queue length, max"
scalar Net5.rte[0].queue[0] drop:count 0
attr interpolationmode none
attr title "dropped packet byte length, count"
attr unit bytes
scalar Net5.rte[0].queue[0] drop:sum 0
attr interpolationmode none
attr title "dropped packet byte length, sum"
attr unit bytes
scalar Net5.rte[1].app hopCount:mean 2.2155172413793
attr interpolationmode none
attr title "hop count of arrived packets, mean"
scalar Net5.rte[1].app hopCount:max 4
attr interpolationmode none
attr title "hop count of arrived packets, max"
scalar Net5.rte[1].app endToEndDelay:mean 0.22589334216216
attr interpolationmode none
attr title "end-to-end delay of arrived packets, mean"
attr unit s
scalar Net5.rte[1].app endToEndDelay:max 0.413333333336
attr interpolationmode none
attr title "end-to-end delay of arrived packets, max"
attr unit s
statistic Net5.rte[1].routing outputIf:histogram
field count 222
field mean -0.19369369369369
field stddev 0.90416625220933
field min -1
field max 1
field sum -43
field sqrsum 189
attr interpolationmode none
attr title "output interface for each routed packet, histogram"
bin	-inf	0
bin	-2	0
bin	-1	116
bin	0	33
bin	1	73
bin	2	0
scalar Net5.rte[1].routing drop:count 0
attr interpolationmode none
attr title "dropped packet byte length, count"
attr unit bytes
scalar Net5.rte[1].routing drop:sum 0
attr interpolationmode none
attr title "dropped packet byte length, sum"
attr unit bytes
scalar Net5.rte[1].queue[0] rxBytes:count 66
attr interpolationmode none
attr title "received packet byte length, count"
attr unit bytes
scalar Net5.rte[1].queue[0] rxBytes:sum 99100
attr interpolationmode none
attr title "received packet byte length, sum"
attr unit bytes
statistic Net5.rte[1].queue[0] rxBytes:histogram
field count 66
field mean 1501.5151515152
field stddev 8.81300162653
field min 1500
field max 1560
field sum 99100
field sqrsum 148805200
attr interpolationmode none
attr title "received packet byte length, histogram"
attr unit bytes
bin	-inf	0
bin	1485	0
bin	1486	0
bin	1487	0
bin	1488	0
bin	1489	0
bin	1490	0
bin	1491	0
bin	1492	0
bin	1493	0
bin	1494	0
bin	1495	0
bin	1496	0
bin	1497	0
bin	1498	0
bin	1499	0
bin	1500	64
bin	1501	0
bin	1502	0
bin	1503	0
bin	1504	0
bin	1505	0
bin	1506	0
bin	1507	0
bin	1508	0
bin	1509	0
bin	1510	0
bin	1511	0
bin	1512	0
bin	1513	0
bin	1514	0
bin	1515	0
bin	1516	0
bin	1517	0
bin	1518	0
bin	1519	0
bin	1520	0
bin	1521	0
bin	1522	0
bin	1523	0
bin	1524	0
bin	1525	0
bin	1526	0
bin	1527	0
bin	1528	0
bin	1529	0
bin	1530	0
bin	1531	0
bin	1532	0
bin	1533	0
bin	1534	0
bin	1535	0
bin	1536	0
bin	1537	0
bin	1538	0
bin	1539	0
bin	1540	1
bin	1541	0
bin	1542	0
bin	1543	0
bin	1544	0
bin	1545	0
bin	1546	0
bin	1547	0
bin	1548	0
bin	1549	0
bin	1550	0
bin	1551	0
bin	1552	0
bin	1553	0
bin	1554	0
bin	1555	0
bin	1556	0
bin	1557	0
bin	1558	0
bin	1559	0
bin	1560	1
bin	1561	0
bin	1562	0
bin	1563	0
bin	1564	0
bin	1565	0
bin	1566	0
bin	1567	0
bin	1568	0
bin	1569	0
bin	1570	0
bin	1571	0
bin	1572	0
bin	1573	0
bin	1574	0
bin	1575	0
scalar Net5.rte[1].queue[0] txBytes:count 33
attr interpolationmode none
attr title "transmitting packet byte length, count"
attr unit bytes
scalar Net5.rte[1].queue[0] txBytes:sum 49630
attr interpolationmode none
attr title "transmitting packet byte length, sum"
attr unit bytes
statistic Net5.rte[1].queue[0] txBytes:histogram
field count 33
field mean 1503.9393939394
field stddev 16.944651431089
field min 1500
field max 1590
field sum 49630
field sqrsum 74649700
attr interpolationmode none
attr title "transmitting packet byte length, histogram"
attr unit bytes
bin	-inf	0
bin	1476	0
bin	1478	0
bin	1480	0
bin	1482	0
bin	1484	0
bin	1486	0
bin	1488	0
bin	1490	0
bin	1492	0
bin	1494	0
bin	1496	0
bin	1498	0
bin	1500	31
bin	1502	0
bin	1504	0
bin	1506	0
bin	1508	0
bin	1510	0
bin	1512	0
bin	1514	0
bin	1516	0
bin	1518	0
bin	1520	0
bin	1522	0
bin	1524	0
bin	1526	0
bin	1528	0
bin	1530	0
bin	1532	0
bin	1534	0
bin	1536	0
bin	1538	0
bin	1540	1
bin	1542	0
bin	1544	0
bin	1546	0
bin	1548	0
bin	1550	0
bin	1552	0
bin	1554	0
bin	1556	0
bin	1558	0
bin	1560	0
bin	1562	0
bin	1564	0
bin	1566	0
bin	1568	0
bin	1570	0
bin	1572	0
bin	1574	0
bin	1576	0
bin	1578	0
bin	1580	0
bin	1582	0
bin	1584	0
bin	1586	0
bin	1588	0
bin	1590	1
bin	1592	0
bin	1594	0
bin	1596	0
bin	1598	0
bin	1600	0
bin	1602	0
bin	1604	0
bin	1606	0
bin	1608	0
bin	1610	0
bin	1612	0
bin	1614	0
scalar Net5.rte[1].queue[0] busy:timeavg 0.0010185570708588
attr interpolationmode sample-hold
attr title "server busy state, timeavg"
scalar Net5.rte[1].queue[0] qlen:timeavg 0.00092353552667823
attr interpolationmode sample-hold
attr title "queue length, timeavg"
scalar Net5.rte[1].queue[0] qlen:max 3
attr interpolationmode sample-hold
attr title "queue length, max"
scalar Net5.rte[1].queue[0] drop:count 0
attr interpolationmode none
attr title "dropped packet byte length, count"
attr unit bytes
scalar Net5.rte[1].queue[0] drop:sum 0
attr interpolationmode none
attr title "dropped packet byte length, sum"
attr unit bytes
scalar Net5.rte[1].queue[1] rxBytes:count 50
attr interpolationmode none
attr title "received packet byte length, count"
attr unit bytes
scalar Net5.rte[1].queue[1] rxBytes:sum 75120
attr interpolationmode none
attr title "received packet byte length, sum"
attr unit bytes
statistic Net5.rte[1].queue[1] rxBytes:histogram
field count 50
field mean 1502.4
field stddev 12.5454276572
field min 1500
field max 1580
field sum 75120
field sqrsum 112868000
attr interpolationmode none
attr title "received packet byte length, histogram"
attr unit bytes
bin	-inf	0
bin	1480	0
bin	1482	0
bin	1484	0
bin	1486	0
bin	1488	0
bin	1490	0
bin	1492	0
bin	1494	0
bin	1496	0
bin	1498	0
bin	1500	48
bin	1502	0
bin	1504	0
bin	1506	0
bin	1508	0
bin	1510	0
bin	1512	0
bin	1514	0
bin	1516	0
bin	1518	0
bin	1520	0
bin	1522	0
bin	1524	0
bin	1526	0
bin	1528	0
bin	1530	0
bin	1532	0
bin	1534	0
bin	1536	0
bin	1538	0
bin	1540	1
bin	1542	0
bin	1544	0
bin	1546	0
bin	1548	0
bin	1550	0
bin	1552	0
bin	1554	0
bin	1556	0
bin	1558	0
bin	1560	0
bin	1562	0
bin	1564	0
bin	1566	0
bin	1568	0
bin	1570	0
bin	1572	0
bin	1574	0
bin	1576	0
bin	1578	0
bin	1580	1
bin	1582	0
bin	1584	0
bin	1586	0
bin	1588	0
bin	1590	0
bin	1592	0
bin	1594	0
bin	1596	0
bin	1598	0
bin	1600	0
scalar Net5.rte[1].queue[1] txBytes:count 73
attr interpolationmode none
attr title "transmitting packet byte length, count"
attr unit bytes
scalar Net5.rte[1].queue[1] txBytes:sum 109740
attr interpolationmode none
attr title "transmitting packet byte length, sum"
attr unit bytes
statistic Net5.rte[1].queue[1] txBytes:histogram
field count 73
field mean 1503.2876712329
field stddev 15.550526475599
field min 1500
field max 1590
field sum 109740
field sqrsum 164988200
attr interpolationmode none
attr title "transmitting packet byte length, histogram"
attr unit bytes
bin	-inf	0
bin	1476	0
bin	1478	0
bin	1480	0
bin	1482	0
bin	1484	0
bin	1486	0
bin	1488	0
bin	1490	0
bin	1492	0
bin	1494	0
bin	1496	0
bin	1498	0
bin	1500	69
bin	1502	0
bin	1504	0
bin	1506	0
bin	1508	0
bin	1510	1
bin	1512	0
bin	1514	0
bin	1516	0
bin	1518	0
bin	1520	0
bin	1522	0
bin	1524	0
bin	1526	0
bin	1528	0
bin	1530	0
bin	1532	0
bin	1534	0
bin	1536	0
bin	1538	0
bin	1540	0
bin	1542	0
bin	1544	0
bin	1546	0
bin	1548	0
bin	1550	0
bin	1552	0
bin	1554	0
bin	1556	0
bin	1558	0
bin	1560	1
bin	1562	0
bin	1564	0
bin	1566	0
bin	1568	0
bin	1570	0
bin	1572	0
bin	1574	0
bin	1576	0
bin	1578	0
bin	1580	1
bin	1582	0
bin	1584	0
bin	1586	0
bin	1588	0
bin	1590	1
bin	1592	0
bin	1594	0
bin	1596	0
bin	1598	0
bin	1600	0
bin	1602	0
bin	1604	0
bin	1606	0
bin	1608	0
bin	1610	0
bin	1612	0
bin	1614	0
scalar Net5.rte[1].queue[1] busy:timeavg 0.0022521953043793
attr interpolationmode sample-hold
attr title "server busy state, timeavg"
scalar Net5.rte[1].queue[1] qlen:timeavg 0.0048947382913946
attr interpolationmode sample-hold
attr title "queue length, timeavg"
scalar Net5.rte[1].queue[1] qlen:max 6
attr interpolationmode sample-hold
attr title "queue length, max"
scalar Net5.rte[1].queue[1] drop:count 0
attr interpolationmode none
attr title "dropped packet byte length, count"
attr unit bytes
scalar Net5.rte[1].queue[1] drop:sum 0
attr interpolationmode none
attr title "dropped packet byte length, sum"
attr unit bytes
scalar Net5.rte[2].app hopCount:mean 1.7345132743363
attr interpolationmode none
attr title "hop count of arrived packets, mean"
scalar Net5.rte[2].app hopCount:max 3
attr interpolationmode none
attr title "hop count of arrived packets, max"
scalar Net5.rte[2].app endToEndDelay:mean 0.17807266470101
attr interpolationmode none
attr title "end-to-end delay of arrived packets, mean"
attr unit s
scalar Net5.rte[2].app endToEndDelay:max 0.313333333336
attr interpolationmode none
attr title "end-to-end delay of arrived packets, max"
attr unit s
statistic Net5.rte[2].routing outputIf:histogram
field count 409
field mean 0.77506112469438
field stddev 1.4118768133093
field min -1
field max 3
field sum 317
field sqrsum 1059
attr interpolationmode none
attr title "output interface for each routed packet, histogram"
bin	-inf	0
bin	-2	0
bin	-1	113
bin	0	66
bin	1	88
bin	2	84
bin	3	58
bin	4	0
scalar Net5.rte[2].routing drop:count 0
attr interpolationmode none
attr title "dropped packet byte length, count"
attr unit bytes
scalar Net5.rte[2].routing drop:sum 0
attr interpolationmode none
attr title "dropped packet byte length, sum"
attr unit bytes
scalar Net5.rte[2].queue[0] rxBytes:count 33
attr interpolationmode none
attr title "received packet byte length, count"
attr unit bytes
scalar Net5.rte[2].queue[0] rxBytes:sum 49630
attr interpolationmode none
attr title "received packet byte length, sum"
attr unit bytes
statistic Net5.rte[2].queue[0] rxBytes:histogram
field count 33
field mean 1503.9393939394
field stddev 16.944651431089
field min 1500
field max 1590
field sum 49630
field sqrsum 74649700
attr interpolationmode none
attr title "received packet byte length, histogram"
attr unit bytes
bin	-inf	0
bin	1476	0
bin	1478	0
bin	1480	0
bin	1482	0
bin	1484	0
bin	1486	0
bin	1488	0
bin	1490	0
bin	1492	0
bin	1494	0
bin	1496	0
bin	1498	0
bin	1500	31
bin	1502	0
bin	1504	0
bin	1506	0
bin	1508	0
bin	1510	0
bin	1512	0
bin	1514	0
bin	1516	0
bin	1518	0
bin	1520	0
bin	1522	0
bin	1524	0
bin	1526	0
bin	1528	0
bin	1530	0
bin	1532	0
bin	1534	0
bin	1536	0
bin	1538	0
bin	1540	1
bin	1542	0
bin	1544	0
bin	1546	0
bin	1548	0
bin	1550	0
bin	1552	0
bin	1554	0
bin	1556	0
bin	1558	0
bin	1560	0
bin	1562	0
bin	1564	0
bin	1566	0
bin	1568	0
bin	1570	0
bin	1572	0
bin	1574	0
bin	1576	0
bin	1578	0
bin	1580	0
bin	1582	0
bin	1584	0
bin	1586	0
bin	1588	0
bin	1590	1
bin	1592	0
bin	1594	0
bin	1596	0
bin	1598	0
bin	1600	0
bin	1602	0
bin	1604	0
bin	1606	0
bin	1608	0
bin	1610	0
bin	1612	0
bin	1614	0
scalar Net5.rte[2].queue[0] txBytes:count 66
attr interpolationmode none
attr title "transmitting packet byte length, count"
attr unit bytes
scalar Net5.rte[2].queue[0] txBytes:sum 99100
attr interpolationmode none
attr title "transmitting packet byte length, sum"
attr unit bytes
statistic Net5.rte[2].queue[0] txBytes:histogram
field count 66
field mean 1501.5151515152
field stddev 8.81300162653
field min 1500
field max 1560
field sum 99100
field sqrsum 148805200
attr interpolationmode none
attr title "transmitting packet byte length, histogram"
attr unit bytes
bin	-inf	0
bin	1485	0
bin	1486	0
bin	1487	0
bin	1488	0
bin	1489	0
bin	1490	0
bin	1491	0
bin	1492	0
bin	1493	0
bin	1494	0
bin	1495	0
bin	1496	0
bin	1497	0
bin	1498	0
bin	1499	0
bin	1500	64
bin	1501	0
bin	1502	0
bin	1503	0
bin	1504	0
bin	1505	0
bin	1506	0
bin	1507	0
bin	1508	0
bin	1509	0
bin	1510	0
bin	1511	0
bin	1512	0
bin	1513	0
bin	1514	0
bin	1515	0
bin	1516	0
bin	1517	0
bin	1518	0
bin	1519	0
bin	1520	0
bin	1521	0
bin	1522	0
bin	1523	0
bin	1524	0
bin	1525	0
bin	1526	0
bin	1527	0
bin	1528	0
bin	1529	0
bin	1530	0
bin	1531	0
bin	1532	0
bin	1533	0
bin	1534	0
bin	1535	0
bin	1536	0
bin	1537	0
bin	1538	0
bin	1539	0
bin	1540	1
bin	1541	0
bin	1542	0
bin	1543	0
bin	1544	0
bin	1545	0
bin	1546	0
bin	1547	0
bin	1548	0
bin	1549	0
bin	1550	0
bin	1551	0
bin	1552	0
bin	1553	0
bin	1554	0
bin	1555	0
bin	1556	0
bin	1557	0
bin	1558	0
bin	1559	0
bin	1560	1
bin	1561	0
bin	1562	0
bin	1563	0
bin	1564	0
bin	1565	0
bin	1566	0
bin	1567	0
bin	1568	0
bin	1569	0
bin	1570	0
bin	1571	0
bin	1572	0
bin	1573	0
bin	1574	0
bin	1575	0
scalar Net5.rte[2].queue[0] busy:timeavg 0.0020338304598416
attr interpolationmode sample-hold
attr title "server busy state, timeavg"
scalar Net5.rte[2].queue[0] qlen:timeavg 8.9991798165823e-005
attr interpolationmode sample-hold
attr title "queue length, timeavg"
scalar Net5.rte[2].queue[0] qlen:max 1
attr interpolationmode sample-hold
attr title "queue length, max"
scalar Net5.rte[2].queue[0] drop:count 0
attr interpolationmode none
attr title "dropped packet byte length, count"
attr unit bytes
scalar Net5.rte[2].queue[0] drop:sum 0
attr interpolationmode none
attr title "dropped packet byte length, sum"
attr unit bytes
scalar Net5.rte[2].queue[1] rxBytes:count 68
attr interpolationmode none
attr title "received packet byte length, count"
attr unit bytes
scalar Net5.rte[2].queue[1] rxBytes:sum 102110
attr interpolationmode none
attr title "received packet byte length, sum"
attr unit bytes
statistic Net5.rte[2].queue[1] rxBytes:histogram
field count 68
field mean 1501.6176470588
field stddev 10.016448281304
field min 1500
field max 1580
field sum 102110
field sqrsum 153336900
attr interpolationmode none
attr title "received packet byte length, histogram"
attr unit bytes
bin	-inf	0
bin	1480	0
bin	1482	0
bin	1484	0
bin	1486	0
bin	1488	0
bin	1490	0
bin	1492	0
bin	1494	0
bin	1496	0
bin	1498	0
bin	1500	65
bin	1502	0
bin	1504	0
bin	1506	0
bin	1508	0
bin	1510	1
bin	1512	0
bin	1514	0
bin	1516	0
bin	1518	0
bin	1520	1
bin	1522	0
bin	1524	0
bin	1526	0
bin	1528	0
bin	1530	0
bin	1532	0
bin	1534	0
bin	1536	0
bin	1538	0
bin	1540	0
bin	1542	0
bin	1544	0
bin	1546	0
bin	1548	0
bin	1550	0
bin	1552	0
bin	1554	0
bin	1556	0
bin	1558	0
bin	1560	0
bin	1562	0
bin	1564	0
bin	1566	0
bin	1568	0
bin	1570	0
bin	1572	0
bin	1574	0
bin	1576	0
bin	1578	0
bin	1580	1
bin	1582	0
bin	1584	0
bin	1586	0
bin	1588	0
bin	1590	0
bin	1592	0
bin	1594	0
bin	1596	0
bin	1598	0
bin	1600	0
scalar Net5.rte[2].queue[1] txBytes:count 88
attr interpolationmode none
attr title "transmitting packet byte length, count"
attr unit bytes
scalar Net5.rte[2].queue[1] txBytes:sum 132140
attr interpolationmode none
attr title "transmitting packet byte length, sum"
attr unit bytes
statistic Net5.rte[2].queue[1] txBytes:histogram
field count 88
field mean 1501.5909090909
field stddev 11.435613220937
field min 1500
field max 1600
field sum 132140
field sqrsum 198431600
attr interpolationmode none
attr title "transmitting packet byte length, histogram"
attr unit bytes
bin	-inf	0
bin	1474	0
bin	1476	0
bin	1478	0
bin	1480	0
bin	1482	0
bin	1484	0
bin	1486	0
bin	1488	0
bin	1490	0
bin	1492	0
bin	1494	0
bin	1496	0
bin	1498	0
bin	1500	86
bin	1502	0
bin	1504	0
bin	1506	0
bin	1508	0
bin	1510	0
bin	1512	0
bin	1514	0
bin	1516	0
bin	1518	0
bin	1520	0
bin	1522	0
bin	1524	0
bin	1526	0
bin	1528	0
bin	1530	0
bin	1532	0
bin	1534	0
bin	1536	0
bin	1538	0
bin	1540	1
bin	1542	0
bin	1544	0
bin	1546	0
bin	1548	0
bin	1550	0
bin	1552	0
bin	1554	0
bin	1556	0
bin	1558	0
bin	1560	0
bin	1562	0
bin	1564	0
bin	1566	0
bin	1568	0
bin	1570	0
bin	1572	0
bin	1574	0
bin	1576	0
bin	1578	0
bin	1580	0
bin	1582	0
bin	1584	0
bin	1586	0
bin	1588	0
bin	1590	0
bin	1592	0
bin	1594	0
bin	1596	0
bin	1598	0
bin	1600	1
bin	1602	0
bin	1604	0
bin	1606	0
bin	1608	0
bin	1610	0
bin	1612	0
bin	1614	0
bin	1616	0
bin	1618	0
bin	1620	0
bin	1622	0
bin	1624	0
bin	1626	0
scalar Net5.rte[2].queue[1] busy:timeavg 0.0027119107665505
attr interpolationmode sample-hold
attr title "server busy state, timeavg"
scalar Net5.rte[2].queue[1] qlen:timeavg 0.0024319768869193
attr interpolationmode sample-hold
attr title "queue length, timeavg"
scalar Net5.rte[2].queue[1] qlen:max 4
attr interpolationmode sample-hold
attr title "queue length, max"
scalar Net5.rte[2].queue[1] drop:count 0
attr interpolationmode none
attr title "dropped packet byte length, count"
attr unit bytes
scalar Net5.rte[2].queue[1] drop:sum 0
attr interpolationmode none
attr title "dropped packet byte length, sum"
attr unit bytes
scalar Net5.rte[2].queue[2] rxBytes:count 104
attr interpolationmode none
attr title "received packet byte length, count"
attr unit bytes
scalar Net5.rte[2].queue[2] rxBytes:sum 156290
attr interpolationmode none
attr title "received packet byte length, sum"
attr unit bytes
statistic Net5.rte[2].queue[2] rxBytes:histogram
field count 104
field mean 1502.7884615385
field stddev 14.173456030999
field min 1500
field max 1590
field sum 156290
field sqrsum 234891500
attr interpolationmode none
attr title "received packet byte length, histogram"
attr unit bytes
bin	-inf	0
bin	1476	0
bin	1478	0
bin	1480	0
bin	1482	0
bin	1484	0
bin	1486	0
bin	1488	0
bin	1490	0
bin	1492	0
bin	1494	0
bin	1496	0
bin	1498	0
bin	1500	99
bin	1502	0
bin	1504	0
bin	1506	0
bin	1508	0
bin	1510	1
bin	1512	0
bin	1514	0
bin	1516	0
bin	1518	0
bin	1520	0
bin	1522	0
bin	1524	0
bin	1526	0
bin	1528	0
bin	1530	0
bin	1532	0
bin	1534	0
bin	1536	0
bin	1538	0
bin	1540	1
bin	1542	0
bin	1544	0
bin	1546	0
bin	1548	0
bin	1550	0
bin	1552	0
bin	1554	0
bin	1556	0
bin	1558	0
bin	1560	1
bin	1562	0
bin	1564	0
bin	1566	0
bin	1568	0
bin	1570	0
bin	1572	0
bin	1574	0
bin	1576	0
bin	1578	0
bin	1580	0
bin	1582	0
bin	1584	0
bin	1586	0
bin	1588	0
bin	1590	2
bin	1592	0
bin	1594	0
bin	1596	0
bin	1598	0
bin	1600	0
bin	1602	0
bin	1604	0
bin	1606	0
bin	1608	0
bin	1610	0
bin	1612	0
bin	1614	0
scalar Net5.rte[2].queue[2] txBytes:count 84
attr interpolationmode none
attr title "transmitting packet byte length, count"
attr unit bytes
scalar Net5.rte[2].queue[2] txBytes:sum 126100
attr interpolationmode none
attr title "transmitting packet byte length, sum"
attr unit bytes
statistic Net5.rte[2].queue[2] txBytes:histogram
field count 84
field mean 1501.1904761905
field stddev 8.9718115328056
field min 1500
field max 1580
field sum 126100
field sqrsum 189306800
attr interpolationmode none
attr title "transmitting packet byte length, histogram"
attr unit bytes
bin	-inf	0
bin	1480	0
bin	1482	0
bin	1484	0
bin	1486	0
bin	1488	0
bin	1490	0
bin	1492	0
bin	1494	0
bin	1496	0
bin	1498	0
bin	1500	82
bin	1502	0
bin	1504	0
bin	1506	0
bin	1508	0
bin	1510	0
bin	1512	0
bin	1514	0
bin	1516	0
bin	1518	0
bin	1520	1
bin	1522	0
bin	1524	0
bin	1526	0
bin	1528	0
bin	1530	0
bin	1532	0
bin	1534	0
bin	1536	0
bin	1538	0
bin	1540	0
bin	1542	0
bin	1544	0
bin	1546	0
bin	1548	0
bin	1550	0
bin	1552	0
bin	1554	0
bin	1556	0
bin	1558	0
bin	1560	0
bin	1562	0
bin	1564	0
bin	1566	0
bin	1568	0
bin	1570	0
bin	1572	0
bin	1574	0
bin	1576	0
bin	1578	0
bin	1580	1
bin	1582	0
bin	1584	0
bin	1586	0
bin	1588	0
bin	1590	0
bin	1592	0
bin	1594	0
bin	1596	0
bin	1598	0
bin	1600	0
scalar Net5.rte[2].queue[2] busy:timeavg 0.002587951775867
attr interpolationmode sample-hold
attr title "server busy state, timeavg"
scalar Net5.rte[2].queue[2] qlen:timeavg 0.0016239119936762
attr interpolationmode sample-hold
attr title "queue length, timeavg"
scalar Net5.rte[2].queue[2] qlen:max 3
attr interpolationmode sample-hold
attr title "queue length, max"
scalar Net5.rte[2].queue[2] drop:count 0
attr interpolationmode none
attr title "dropped packet byte length, count"
attr unit bytes
scalar Net5.rte[2].queue[2] drop:sum 0
attr interpolationmode none
attr title "dropped packet byte length, sum"
attr unit bytes
scalar Net5.rte[2].queue[3] rxBytes:count 72
attr interpolationmode none
attr title "received packet byte length, count"
attr unit bytes
scalar Net5.rte[2].queue[3] rxBytes:sum 108120
attr interpolationmode none
attr title "received packet byte length, sum"
attr unit bytes
statistic Net5.rte[2].queue[3] rxBytes:histogram
field count 72
field mean 1501.6666666667
field stddev 10.481371805712
field min 1500
field max 1580
field sum 108120
field sqrsum 162368000
attr interpolationmode none
attr title "received packet byte length, histogram"
attr unit bytes
bin	-inf	0
bin	1480	0
bin	1482	0
bin	1484	0
bin	1486	0
bin	1488	0
bin	1490	0
bin	1492	0
bin	1494	0
bin	1496	0
bin	1498	0
bin	1500	70
bin	1502	0
bin	1504	0
bin	1506	0
bin	1508	0
bin	1510	0
bin	1512	0
bin	1514	0
bin	1516	0
bin	1518	0
bin	1520	0
bin	1522	0
bin	1524	0
bin	1526	0
bin	1528	0
bin	1530	0
bin	1532	0
bin	1534	0
bin	1536	0
bin	1538	0
bin	1540	1
bin	1542	0
bin	1544	0
bin	1546	0
bin	1548	0
bin	1550	0
bin	1552	0
bin	1554	0
bin	1556	0
bin	1558	0
bin	1560	0
bin	1562	0
bin	1564	0
bin	1566	0
bin	1568	0
bin	1570	0
bin	1572	0
bin	1574	0
bin	1576	0
bin	1578	0
bin	1580	1
bin	1582	0
bin	1584	0
bin	1586	0
bin	1588	0
bin	1590	0
bin	1592	0
bin	1594	0
bin	1596	0
bin	1598	0
bin	1600	0
scalar Net5.rte[2].queue[3] txBytes:count 58
attr interpolationmode none
attr title "transmitting packet byte length, count"
attr unit bytes
scalar Net5.rte[2].queue[3] txBytes:sum 87260
attr interpolationmode none
attr title "transmitting packet byte length, sum"
attr unit bytes
statistic Net5.rte[2].queue[3] txBytes:histogram
field count 58
field mean 1504.4827586207
field stddev 15.579159920726
field min 1500
field max 1580
field sum 87260
field sqrsum 131295000
attr interpolationmode none
attr title "transmitting packet byte length, histogram"
attr unit bytes
bin	-inf	0
bin	1480	0
bin	1482	0
bin	1484	0
bin	1486	0
bin	1488	0
bin	1490	0
bin	1492	0
bin	1494	0
bin	1496	0
bin	1498	0
bin	1500	52
bin	1502	0
bin	1504	0
bin	1506	0
bin	1508	0
bin	1510	1
bin	1512	0
bin	1514	0
bin	1516	0
bin	1518	0
bin	1520	1
bin	1522	0
bin	1524	0
bin	1526	0
bin	1528	0
bin	1530	0
bin	1532	0
bin	1534	0
bin	1536	0
bin	1538	0
bin	1540	2
bin	1542	0
bin	1544	0
bin	1546	0
bin	1548	0
bin	1550	0
bin	1552	0
bin	1554	0
bin	1556	0
bin	1558	0
bin	1560	0
bin	1562	0
bin	1564	0
bin	1566	0
bin	1568	0
bin	1570	1
bin	1572	0
bin	1574	0
bin	1576	0
bin	1578	0
bin	1580	1
bin	1582	0
bin	1584	0
bin	1586	0
bin	1588	0
bin	1590	0
bin	1592	0
bin	1594	0
bin	1596	0
bin	1598	0
bin	1600	0
scalar Net5.rte[2].queue[3] busy:timeavg 0.0017908380012516
attr interpolationmode sample-hold
attr title "server busy state, timeavg"
scalar Net5.rte[2].queue[3] qlen:timeavg 0
attr interpolationmode sample-hold
attr title "queue length, timeavg"
scalar Net5.rte[2].queue[3] qlen:max 0
attr interpolationmode sample-hold
attr title "queue length, max"
scalar Net5.rte[2].queue[3] drop:count 0
attr interpolationmode none
attr title "dropped packet byte length, count"
attr unit bytes
scalar Net5.rte[2].queue[3] drop:sum 0
attr interpolationmode none
attr title "dropped packet byte length, sum"
attr unit bytes
scalar Net5.rte[3].app hopCount:mean 1.6637168141593
attr interpolationmode none
attr title "hop count of arrived packets, mean"
scalar Net5.rte[3].app hopCount:max 3
attr interpolationmode none
attr title "hop count of arrived packets, max"
scalar Net5.rte[3].app endToEndDelay:mean 0.17188619860551
attr interpolationmode none
attr title "end-to-end delay of arrived packets, mean"
attr unit s
scalar Net5.rte[3].app endToEndDelay:max 0.315000000003
attr interpolationmode none
attr title "end-to-end delay of arrived packets, max"
attr unit s
statistic Net5.rte[3].routing outputIf:histogram
field count 569
field mean 0.80492091388401
field stddev 1.248482333211
field min -1
field max 3
field sum 458
field sqrsum 1254
attr interpolationmode none
attr title "output interface for each routed packet, histogram"
bin	-inf	0
bin	-2	0
bin	-1	113
bin	0	110
bin	1	181
bin	2	105
bin	3	60
bin	4	0
scalar Net5.rte[3].routing drop:count 0
attr interpolationmode none
attr title "dropped packet byte length, count"
attr unit bytes
scalar Net5.rte[3].routing drop:sum 0
attr interpolationmode none
attr title "dropped packet byte length, sum"
attr unit bytes
scalar Net5.rte[3].queue[0] rxBytes:count 89
attr interpolationmode none
attr title "received packet byte length, count"
attr unit bytes
scalar Net5.rte[3].queue[0] rxBytes:sum 133680
attr interpolationmode none
attr title "received packet byte length, sum"
attr unit bytes
statistic Net5.rte[3].queue[0] rxBytes:histogram
field count 89
field mean 1502.0224719101
field stddev 9.7909716391443
field min 1500
field max 1570
field sum 133680
field sqrsum 200798800
attr interpolationmode none
attr title "received packet byte length, histogram"
attr unit bytes
bin	-inf	0
bin	1482	0
bin	1484	0
bin	1486	0
bin	1488	0
bin	1490	0
bin	1492	0
bin	1494	0
bin	1496	0
bin	1498	0
bin	1500	84
bin	1502	0
bin	1504	0
bin	1506	0
bin	1508	0
bin	1510	1
bin	1512	0
bin	1514	0
bin	1516	0
bin	1518	0
bin	1520	1
bin	1522	0
bin	1524	0
bin	1526	0
bin	1528	0
bin	1530	1
bin	1532	0
bin	1534	0
bin	1536	0
bin	1538	0
bin	1540	0
bin	1542	0
bin	1544	0
bin	1546	0
bin	1548	0
bin	1550	1
bin	1552	0
bin	1554	0
bin	1556	0
bin	1558	0
bin	1560	0
bin	1562	0
bin	1564	0
bin	1566	0
bin	1568	0
bin	1570	1
bin	1572	0
bin	1574	0
bin	1576	0
bin	1578	0
bin	1580	0
bin	1582	0
bin	1584	0
bin	1586	0
bin	1588	0
scalar Net5.rte[3].queue[0] txBytes:count 110
attr interpolationmode none
attr title "transmitting packet byte length, count"
attr unit bytes
scalar Net5.rte[3].queue[0] txBytes:sum 165120
attr interpolationmode none
attr title "transmitting packet byte length, sum"
attr unit bytes
statistic Net5.rte[3].queue[0] txBytes:histogram
field count 110
field mean 1501.0909090909
field stddev 8.4966755015618
field min 1500
field max 1580
field sum 165120
field sqrsum 247868000
attr interpolationmode none
attr title "transmitting packet byte length, histogram"
attr unit bytes
bin	-inf	0
bin	1499	0
bin	1500	108
bin	1501	0
bin	1502	0
bin	1503	0
bin	1504	0
bin	1505	0
bin	1506	0
bin	1507	0
bin	1508	0
bin	1509	0
bin	1510	0
bin	1511	0
bin	1512	0
bin	1513	0
bin	1514	0
bin	1515	0
bin	1516	0
bin	1517	0
bin	1518	0
bin	1519	0
bin	1520	0
bin	1521	0
bin	1522	0
bin	1523	0
bin	1524	0
bin	1525	0
bin	1526	0
bin	1527	0
bin	1528	0
bin	1529	0
bin	1530	0
bin	1531	0
bin	1532	0
bin	1533	0
bin	1534	0
bin	1535	0
bin	1536	0
bin	1537	0
bin	1538	0
bin	1539	0
bin	1540	1
bin	1541	0
bin	1542	0
bin	1543	0
bin	1544	0
bin	1545	0
bin	1546	0
bin	1547	0
bin	1548	0
bin	1549	0
bin	1550	0
bin	1551	0
bin	1552	0
bin	1553	0
bin	1554	0
bin	1555	0
bin	1556	0
bin	1557	0
bin	1558	0
bin	1559	0
bin	1560	0
bin	1561	0
bin	1562	0
bin	1563	0
bin	1564	0
bin	1565	0
bin	1566	0
bin	1567	0
bin	1568	0
bin	1569	0
bin	1570	0
bin	1571	0
bin	1572	0
bin	1573	0
bin	1574	0
bin	1575	0
bin	1576	0
bin	1577	0
bin	1578	0
bin	1579	0
bin	1580	1
bin	1581	0
scalar Net5.rte[3].queue[0] busy:timeavg 0.0033887596925513
attr interpolationmode sample-hold
attr title "server busy state, timeavg"
scalar Net5.rte[3].queue[0] qlen:timeavg 3.5745860545111e-005
attr interpolationmode sample-hold
attr title "queue length, timeavg"
scalar Net5.rte[3].queue[0] qlen:max 1
attr interpolationmode sample-hold
attr title "queue length, max"
scalar Net5.rte[3].queue[0] drop:count 0
attr interpolationmode none
attr title "dropped packet byte length, count"
attr unit bytes
scalar Net5.rte[3].queue[0] drop:sum 0
attr interpolationmode none
attr title "dropped packet byte length, sum"
attr unit bytes
scalar Net5.rte[3].queue[1] rxBytes:count 180
attr interpolationmode none
attr title "received packet byte length, count"
attr unit bytes
scalar Net5.rte[3].queue[1] rxBytes:sum 270410
attr interpolationmode none
attr title "received packet byte length, sum"
attr unit bytes
statistic Net5.rte[3].queue[1] rxBytes:histogram
field count 180
field mean 1502.2777777778
field stddev 12.228301067172
field min 1500
field max 1610
field sum 270410
field sqrsum 406257700
attr interpolationmode none
attr title "received packet byte length, histogram"
attr unit bytes
bin	-inf	0
bin	1487	0
bin	1489	0
bin	1491	0
bin	1493	0
bin	1495	0
bin	1497	0
bin	1499	171
bin	1501	0
bin	1503	0
bin	1505	0
bin	1507	0
bin	1509	2
bin	1511	0
bin	1513	0
bin	1515	0
bin	1517	0
bin	1519	1
bin	1521	0
bin	1523	0
bin	1525	0
bin	1527	0
bin	1529	1
bin	1531	0
bin	1533	0
bin	1535	0
bin	1537	0
bin	1539	1
bin	1541	0
bin	1543	0
bin	1545	0
bin	1547	0
bin	1549	1
bin	1551	0
bin	1553	0
bin	1555	0
bin	1557	0
bin	1559	1
bin	1561	0
bin	1563	0
bin	1565	0
bin	1567	0
bin	1569	0
bin	1571	0
bin	1573	0
bin	1575	0
bin	1577	0
bin	1579	1
bin	1581	0
bin	1583	0
bin	1585	0
bin	1587	0
bin	1589	0
bin	1591	0
bin	1593	0
bin	1595	0
bin	1597	0
bin	1599	0
bin	1601	0
bin	1603	0
bin	1605	0
bin	1607	0
bin	1609	1
bin	1611	0
scalar Net5.rte[3].queue[1] txBytes:count 181
attr interpolationmode none
attr title "transmitting packet byte length, count"
attr unit bytes
scalar Net5.rte[3].queue[1] txBytes:sum 271770
attr interpolationmode none
attr title "transmitting packet byte length, sum"
attr unit bytes
statistic Net5.rte[3].queue[1] txBytes:histogram
field count 181
field mean 1501.4917127072
field stddev 10.513810380488
field min 1500
field max 1610
field sum 271770
field sqrsum 408080300
attr interpolationmode none
attr title "transmitting packet byte length, histogram"
attr unit bytes
bin	-inf	0
bin	1495	0
bin	1497	0
bin	1499	176
bin	1501	0
bin	1503	0
bin	1505	0
bin	1507	0
bin	1509	0
bin	1511	0
bin	1513	0
bin	1515	0
bin	1517	0
bin	1519	2
bin	1521	0
bin	1523	0
bin	1525	0
bin	1527	0
bin	1529	0
bin	1531	0
bin	1533	0
bin	1535	0
bin	1537	0
bin	1539	0
bin	1541	0
bin	1543	0
bin	1545	0
bin	1547	0
bin	1549	1
bin	1551	0
bin	1553	0
bin	1555	0
bin	1557	0
bin	1559	0
bin	1561	0
bin	1563	0
bin	1565	0
bin	1567	0
bin	1569	1
bin	1571	0
bin	1573	0
bin	1575	0
bin	1577	0
bin	1579	0
bin	1581	0
bin	1583	0
bin	1585	0
bin	1587	0
bin	1589	0
bin	1591	0
bin	1593	0
bin	1595	0
bin	1597	0
bin	1599	0
bin	1601	0
bin	1603	0
bin	1605	0
bin	1607	0
bin	1609	1
bin	1611	0
scalar Net5.rte[3].queue[1] busy:timeavg 0.0055775388907473
attr interpolationmode sample-hold
attr title "server busy state, timeavg"
scalar Net5.rte[3].queue[1] qlen:timeavg 0.0019702091235802
attr interpolationmode sample-hold
attr title "queue length, timeavg"
scalar Net5.rte[3].queue[1] qlen:max 4
attr interpolationmode sample-hold
attr title "queue length, max"
scalar Net5.rte[3].queue[1] drop:count 0
attr interpolationmode none
attr title "dropped packet byte length, count"
attr unit bytes
scalar Net5.rte[3].queue[1] drop:sum 0
attr interpolationmode none
attr title "dropped packet byte length, sum"
attr unit bytes
scalar Net5.rte[3].queue[2] rxBytes:count 104
attr interpolationmode none
attr title "received packet byte length, count"
attr unit bytes
scalar Net5.rte[3].queue[2] rxBytes:sum 156240
attr interpolationmode none
attr title "received packet byte length, sum"
attr unit bytes
statistic Net5.rte[3].queue[2] rxBytes:histogram
field count 104
field mean 1502.3076923077
field stddev 14.089228084633
field min 1500
field max 1610
field sum 156240
field sqrsum 234741000
attr interpolationmode none
attr title "received packet byte length, histogram"
attr unit bytes
bin	-inf	0
bin	1472	0
bin	1474	0
bin	1476	0
bin	1478	0
bin	1480	0
bin	1482	0
bin	1484	0
bin	1486	0
bin	1488	0
bin	1490	0
bin	1492	0
bin	1494	0
bin	1496	0
bin	1498	0
bin	1500	101
bin	1502	0
bin	1504	0
bin	1506	0
bin	1508	0
bin	1510	0
bin	1512	0
bin	1514	0
bin	1516	0
bin	1518	0
bin	1520	0
bin	1522	0
bin	1524	0
bin	1526	0
bin	1528	0
bin	1530	0
bin	1532	0
bin	1534	0
bin	1536	0
bin	1538	0
bin	1540	0
bin	1542	0
bin	1544	0
bin	1546	0
bin	1548	0
bin	1550	1
bin	1552	0
bin	1554	0
bin	1556	0
bin	1558	0
bin	1560	0
bin	1562	0
bin	1564	0
bin	1566	0
bin	1568	0
bin	1570	0
bin	1572	0
bin	1574	0
bin	1576	0
bin	1578	0
bin	1580	1
bin	1582	0
bin	1584	0
bin	1586	0
bin	1588	0
bin	1590	0
bin	1592	0
bin	1594	0
bin	1596	0
bin	1598	0
bin	1600	0
bin	1602	0
bin	1604	0
bin	1606	0
bin	1608	0
bin	1610	1
bin	1612	0
bin	1614	0
bin	1616	0
bin	1618	0
bin	1620	0
bin	1622	0
bin	1624	0
bin	1626	0
bin	1628	0
bin	1630	0
bin	1632	0
bin	1634	0
bin	1636	0
bin	1638	0
scalar Net5.rte[3].queue[2] txBytes:count 105
attr interpolationmode none
attr title "transmitting packet byte length, count"
attr unit bytes
scalar Net5.rte[3].queue[2] txBytes:sum 157860
attr interpolationmode none
attr title "transmitting packet byte length, sum"
attr unit bytes
statistic Net5.rte[3].queue[2] txBytes:histogram
field count 105
field mean 1503.4285714286
field stddev 14.533024159089
field min 1500
field max 1590
field sum 157860
field sqrsum 237353200
attr interpolationmode none
attr title "transmitting packet byte length, histogram"
attr unit bytes
bin	-inf	0
bin	1476	0
bin	1478	0
bin	1480	0
bin	1482	0
bin	1484	0
bin	1486	0
bin	1488	0
bin	1490	0
bin	1492	0
bin	1494	0
bin	1496	0
bin	1498	0
bin	1500	98
bin	1502	0
bin	1504	0
bin	1506	0
bin	1508	0
bin	1510	1
bin	1512	0
bin	1514	0
bin	1516	0
bin	1518	0
bin	1520	0
bin	1522	0
bin	1524	0
bin	1526	0
bin	1528	0
bin	1530	1
bin	1532	0
bin	1534	0
bin	1536	0
bin	1538	0
bin	1540	1
bin	1542	0
bin	1544	0
bin	1546	0
bin	1548	0
bin	1550	1
bin	1552	0
bin	1554	0
bin	1556	0
bin	1558	0
bin	1560	1
bin	1562	0
bin	1564	0
bin	1566	0
bin	1568	0
bin	1570	0
bin	1572	0
bin	1574	0
bin	1576	0
bin	1578	0
bin	1580	1
bin	1582	0
bin	1584	0
bin	1586	0
bin	1588	0
bin	1590	1
bin	1592	0
bin	1594	0
bin	1596	0
bin	1598	0
bin	1600	0
bin	1602	0
bin	1604	0
bin	1606	0
bin	1608	0
bin	1610	0
bin	1612	0
bin	1614	0
scalar Net5.rte[3].queue[2] busy:timeavg 0.0032397626275488
attr interpolationmode sample-hold
attr title "server busy state, timeavg"
scalar Net5.rte[3].queue[2] qlen:timeavg 0.0011082426320139
attr interpolationmode sample-hold
attr title "queue length, timeavg"
scalar Net5.rte[3].queue[2] qlen:max 3
attr interpolationmode sample-hold
attr title "queue length, max"
scalar Net5.rte[3].queue[2] drop:count 0
attr interpolationmode none
attr title "dropped packet byte length, count"
attr unit bytes
scalar Net5.rte[3].queue[2] drop:sum 0
attr interpolationmode none
attr title "dropped packet byte length, sum"
attr unit bytes
scalar Net5.rte[3].queue[3] rxBytes:count 84
attr interpolationmode none
attr title "received packet byte length, count"
attr unit bytes
scalar Net5.rte[3].queue[3] rxBytes:sum 126100
attr interpolationmode none
attr title "received packet byte length, sum"
attr unit bytes
statistic Net5.rte[3].queue[3] rxBytes:histogram
field count 84
field mean 1501.1904761905
field stddev 10.910894511801
field min 1500
field max 1600
field sum 126100
field sqrsum 189310000
attr interpolationmode none
attr title "received packet byte length, histogram"
attr unit bytes
bin	-inf	0
bin	1499	83
bin	1501	0
bin	1503	0
bin	1505	0
bin	1507	0
bin	1509	0
bin	1511	0
bin	1513	0
bin	1515	0
bin	1517	0
bin	1519	0
bin	1521	0
bin	1523	0
bin	1525	0
bin	1527	0
bin	1529	0
bin	1531	0
bin	1533	0
bin	1535	0
bin	1537	0
bin	1539	0
bin	1541	0
bin	1543	0
bin	1545	0
bin	1547	0
bin	1549	0
bin	1551	0
bin	1553	0
bin	1555	0
bin	1557	0
bin	1559	0
bin	1561	0
bin	1563	0
bin	1565	0
bin	1567	0
bin	1569	0
bin	1571	0
bin	1573	0
bin	1575	0
bin	1577	0
bin	1579	0
bin	1581	0
bin	1583	0
bin	1585	0
bin	1587	0
bin	1589	0
bin	1591	0
bin	1593	0
bin	1595	0
bin	1597	0
bin	1599	1
bin	1601	0
scalar Net5.rte[3].queue[3] txBytes:count 60
attr interpolationmode none
attr title "transmitting packet byte length, count"
attr unit bytes
scalar Net5.rte[3].queue[3] txBytes:sum 90290
attr interpolationmode none
attr title "transmitting packet byte length, sum"
attr unit bytes
statistic Net5.rte[3].queue[3] txBytes:histogram
field count 60
field mean 1504.8333333333
field stddev 18.639457570735
field min 1500
field max 1610
field sum 90290
field sqrsum 135891900
attr interpolationmode none
attr title "transmitting packet byte length, histogram"
attr unit bytes
bin	-inf	0
bin	1472	0
bin	1474	0
bin	1476	0
bin	1478	0
bin	1480	0
bin	1482	0
bin	1484	0
bin	1486	0
bin	1488	0
bin	1490	0
bin	1492	0
bin	1494	0
bin	1496	0
bin	1498	0
bin	1500	55
bin	1502	0
bin	1504	0
bin	1506	0
bin	1508	0
bin	1510	0
bin	1512	0
bin	1514	0
bin	1516	0
bin	1518	0
bin	1520	1
bin	1522	0
bin	1524	0
bin	1526	0
bin	1528	0
bin	1530	1
bin	1532	0
bin	1534	0
bin	1536	0
bin	1538	0
bin	1540	0
bin	1542	0
bin	1544	0
bin	1546	0
bin	1548	0
bin	1550	0
bin	1552	0
bin	1554	0
bin	1556	0
bin	1558	0
bin	1560	1
bin	1562	0
bin	1564	0
bin	1566	0
bin	1568	0
bin	1570	1
bin	1572	0
bin	1574	0
bin	1576	0
bin	1578	0
bin	1580	0
bin	1582	0
bin	1584	0
bin	1586	0
bin	1588	0
bin	1590	0
bin	1592	0
bin	1594	0
bin	1596	0
bin	1598	0
bin	1600	0
bin	1602	0
bin	1604	0
bin	1606	0
bin	1608	0
bin	1610	1
bin	1612	0
bin	1614	0
bin	1616	0
bin	1618	0
bin	1620	0
bin	1622	0
bin	1624	0
bin	1626	0
bin	1628	0
bin	1630	0
bin	1632	0
bin	1634	0
bin	1636	0
bin	1638	0
scalar Net5.rte[3].queue[3] busy:timeavg 0.0018530227267084
attr interpolationmode sample-hold
attr title "server busy state, timeavg"
scalar Net5.rte[3].queue[3] qlen:timeavg 3.0784517555941e-005
attr interpolationmode sample-hold
attr title "queue length, timeavg"
scalar Net5.rte[3].queue[3] qlen:max 1
attr interpolationmode sample-hold
attr title "queue length, max"
scalar Net5.rte[3].queue[3] drop:count 0
attr interpolationmode none
attr title "dropped packet byte length, count"
attr unit bytes
scalar Net5.rte[3].queue[3] drop:sum 0
attr interpolationmode none
attr title "dropped packet byte length, sum"
attr unit bytes
scalar Net5.rte[4].app hopCount:mean 1.7280701754386
attr interpolationmode none
attr title "hop count of arrived packets, mean"
scalar Net5.rte[4].app hopCount:max 3
attr interpolationmode none
attr title "hop count of arrived packets, max"
scalar Net5.rte[4].app endToEndDelay:mean 0.1787019493189
attr interpolationmode none
attr title "end-to-end delay of arrived packets, mean"
attr unit s
scalar Net5.rte[4].app endToEndDelay:max 0.311666666669
attr interpolationmode none
attr title "end-to-end delay of arrived packets, max"
attr unit s
statistic Net5.rte[4].routing outputIf:histogram
field count 383
field mean 0.66840731070496
field stddev 1.2687213009258
field min -1
field max 2
field sum 256
field sqrsum 786
attr interpolationmode none
attr title "output interface for each routed packet, histogram"
bin	-inf	0
bin	-2	0
bin	-1	114
bin	0	50
bin	1	68
bin	2	151
bin	3	0
scalar Net5.rte[4].routing drop:count 0
attr interpolationmode none
attr title "dropped packet byte length, count"
attr unit bytes
scalar Net5.rte[4].routing drop:sum 0
attr interpolationmode none
attr title "dropped packet byte length, sum"
attr unit bytes
scalar Net5.rte[4].queue[0] rxBytes:count 73
attr interpolationmode none
attr title "received packet byte length, count"
attr unit bytes
scalar Net5.rte[4].queue[0] rxBytes:sum 109740
attr interpolationmode none
attr title "received packet byte length, sum"
attr unit bytes
statistic Net5.rte[4].queue[0] rxBytes:histogram
field count 73
field mean 1503.2876712329
field stddev 15.550526475599
field min 1500
field max 1590
field sum 109740
field sqrsum 164988200
attr interpolationmode none
attr title "received packet byte length, histogram"
attr unit bytes
bin	-inf	0
bin	1476	0
bin	1478	0
bin	1480	0
bin	1482	0
bin	1484	0
bin	1486	0
bin	1488	0
bin	1490	0
bin	1492	0
bin	1494	0
bin	1496	0
bin	1498	0
bin	1500	69
bin	1502	0
bin	1504	0
bin	1506	0
bin	1508	0
bin	1510	1
bin	1512	0
bin	1514	0
bin	1516	0
bin	1518	0
bin	1520	0
bin	1522	0
bin	1524	0
bin	1526	0
bin	1528	0
bin	1530	0
bin	1532	0
bin	1534	0
bin	1536	0
bin	1538	0
bin	1540	0
bin	1542	0
bin	1544	0
bin	1546	0
bin	1548	0
bin	1550	0
bin	1552	0
bin	1554	0
bin	1556	0
bin	1558	0
bin	1560	1
bin	1562	0
bin	1564	0
bin	1566	0
bin	1568	0
bin	1570	0
bin	1572	0
bin	1574	0
bin	1576	0
bin	1578	0
bin	1580	1
bin	1582	0
bin	1584	0
bin	1586	0
bin	1588	0
bin	1590	1
bin	1592	0
bin	1594	0
bin	1596	0
bin	1598	0
bin	1600	0
bin	1602	0
bin	1604	0
bin	1606	0
bin	1608	0
bin	1610	0
bin	1612	0
bin	1614	0
scalar Net5.rte[4].queue[0] txBytes:count 50
attr interpolationmode none
attr title "transmitting packet byte length, count"
attr unit bytes
scalar Net5.rte[4].queue[0] txBytes:sum 75120
attr interpolationmode none
attr title "transmitting packet byte length, sum"
attr unit bytes
statistic Net5.rte[4].queue[0] txBytes:histogram
field count 50
field mean 1502.4
field stddev 12.5454276572
field min 1500
field max 1580
field sum 75120
field sqrsum 112868000
attr interpolationmode none
attr title "transmitting packet byte length, histogram"
attr unit bytes
bin	-inf	0
bin	1480	0
bin	1482	0
bin	1484	0
bin	1486	0
bin	1488	0
bin	1490	0
bin	1492	0
bin	1494	0
bin	1496	0
bin	1498	0
bin	1500	48
bin	1502	0
bin	1504	0
bin	1506	0
bin	1508	0
bin	1510	0
bin	1512	0
bin	1514	0
bin	1516	0
bin	1518	0
bin	1520	0
bin	1522	0
bin	1524	0
bin	1526	0
bin	1528	0
bin	1530	0
bin	1532	0
bin	1534	0
bin	1536	0
bin	1538	0
bin	1540	1
bin	1542	0
bin	1544	0
bin	1546	0
bin	1548	0
bin	1550	0
bin	1552	0
bin	1554	0
bin	1556	0
bin	1558	0
bin	1560	0
bin	1562	0
bin	1564	0
bin	1566	0
bin	1568	0
bin	1570	0
bin	1572	0
bin	1574	0
bin	1576	0
bin	1578	0
bin	1580	1
bin	1582	0
bin	1584	0
bin	1586	0
bin	1588	0
bin	1590	0
bin	1592	0
bin	1594	0
bin	1596	0
bin	1598	0
bin	1600	0
scalar Net5.rte[4].queue[0] busy:timeavg 0.0015416886391949
attr interpolationmode sample-hold
attr title "server busy state, timeavg"
scalar Net5.rte[4].queue[0] qlen:timeavg 0
attr interpolationmode sample-hold
attr title "queue length, timeavg"
scalar Net5.rte[4].queue[0] qlen:max 0
attr interpolationmode sample-hold
attr title "queue length, max"
scalar Net5.rte[4].queue[0] drop:count 0
attr interpolationmode none
attr title "dropped packet byte length, count"
attr unit bytes
scalar Net5.rte[4].queue[0] drop:sum 0
attr interpolationmode none
attr title "dropped packet byte length, sum"
attr unit bytes
scalar Net5.rte[4].queue[1] rxBytes:count 88
attr interpolationmode none
attr title "received packet byte length, count"
attr unit bytes
scalar Net5.rte[4].queue[1] rxBytes:sum 132140
attr interpolationmode none
attr title "received packet byte length, sum"
attr unit bytes
statistic Net5.rte[4].queue[1] rxBytes:histogram
field count 88
field mean 1501.5909090909
field stddev 11.435613220937
field min 1500
field max 1600
field sum 132140
field sqrsum 198431600
attr interpolationmode none
attr title "received packet byte length, histogram"
attr unit bytes
bin	-inf	0
bin	1474	0
bin	1476	0
bin	1478	0
bin	1480	0
bin	1482	0
bin	1484	0
bin	1486	0
bin	1488	0
bin	1490	0
bin	1492	0
bin	1494	0
bin	1496	0
bin	1498	0
bin	1500	86
bin	1502	0
bin	1504	0
bin	1506	0
bin	1508	0
bin	1510	0
bin	1512	0
bin	1514	0
bin	1516	0
bin	1518	0
bin	1520	0
bin	1522	0
bin	1524	0
bin	1526	0
bin	1528	0
bin	1530	0
bin	1532	0
bin	1534	0
bin	1536	0
bin	1538	0
bin	1540	1
bin	1542	0
bin	1544	0
bin	1546	0
bin	1548	0
bin	1550	0
bin	1552	0
bin	1554	0
bin	1556	0
bin	1558	0
bin	1560	0
bin	1562	0
bin	1564	0
bin	1566	0
bin	1568	0
bin	1570	0
bin	1572	0
bin	1574	0
bin	1576	0
bin	1578	0
bin	1580	0
bin	1582	0
bin	1584	0
bin	1586	0
bin	1588	0
bin	1590	0
bin	1592	0
bin	1594	0
bin	1596	0
bin	1598	0
bin	1600	1
bin	1602	0
bin	1604	0
bin	1606	0
bin	1608	0
bin	1610	0
bin	1612	0
bin	1614	0
bin	1616	0
bin	1618	0
bin	1620	0
bin	1622	0
bin	1624	0
bin	1626	0
scalar Net5.rte[4].queue[1] txBytes:count 68
attr interpolationmode none
attr title "transmitting packet byte length, count"
attr unit bytes
scalar Net5.rte[4].queue[1] txBytes:sum 102110
attr interpolationmode none
attr title "transmitting packet byte length, sum"
attr unit bytes
statistic Net5.rte[4].queue[1] txBytes:histogram
field count 68
field mean 1501.6176470588
field stddev 10.016448281304
field min 1500
field max 1580
field sum 102110
field sqrsum 153336900
attr interpolationmode none
attr title "transmitting packet byte length, histogram"
attr unit bytes
bin	-inf	0
bin	1480	0
bin	1482	0
bin	1484	0
bin	1486	0
bin	1488	0
bin	1490	0
bin	1492	0
bin	1494	0
bin	1496	0
bin	1498	0
bin	1500	65
bin	1502	0
bin	1504	0
bin	1506	0
bin	1508	0
bin	1510	1
bin	1512	0
bin	1514	0
bin	1516	0
bin	1518	0
bin	1520	1
bin	1522	0
bin	1524	0
bin	1526	0
bin	1528	0
bin	1530	0
bin	1532	0
bin	1534	0
bin	1536	0
bin	1538	0
bin	1540	0
bin	1542	0
bin	1544	0
bin	1546	0
bin	1548	0
bin	1550	0
bin	1552	0
bin	1554	0
bin	1556	0
bin	1558	0
bin	1560	0
bin	1562	0
bin	1564	0
bin	1566	0
bin	1568	0
bin	1570	0
bin	1572	0
bin	1574	0
bin	1576	0
bin	1578	0
bin	1580	1
bin	1582	0
bin	1584	0
bin	1586	0
bin	1588	0
bin	1590	0
bin	1592	0
bin	1594	0
bin	1596	0
bin	1598	0
bin	1600	0
scalar Net5.rte[4].queue[1] busy:timeavg 0.0020956047250869
attr interpolationmode sample-hold
attr title "server busy state, timeavg"
scalar Net5.rte[4].queue[1] qlen:timeavg 0.001046673596902
attr interpolationmode sample-hold
attr title "queue length, timeavg"
scalar Net5.rte[4].queue[1] qlen:max 3
attr interpolationmode sample-hold
attr title "queue length, max"
scalar Net5.rte[4].queue[1] drop:count 0
attr interpolationmode none
attr title "dropped packet byte length, count"
attr unit bytes
scalar Net5.rte[4].queue[1] drop:sum 0
attr interpolationmode none
attr title "dropped packet byte length, sum"
attr unit bytes
scalar Net5.rte[4].queue[2] rxBytes:count 120
attr interpolationmode none
attr title "received packet byte length, count"
attr unit bytes
scalar Net5.rte[4].queue[2] rxBytes:sum 180190
attr interpolationmode none
attr title "received packet byte length, sum"
attr unit bytes
statistic Net5.rte[4].queue[2] rxBytes:histogram
field count 120
field mean 1501.5833333333
field stddev 11.076193968566
field min 1500
field max 1590
field sum 180190
field sqrsum 270584900
attr interpolationmode none
attr title "received packet byte length, histogram"
attr unit bytes
bin	-inf	0
bin	1476	0
bin	1478	0
bin	1480	0
bin	1482	0
bin	1484	0
bin	1486	0
bin	1488	0
bin	1490	0
bin	1492	0
bin	1494	0
bin	1496	0
bin	1498	0
bin	1500	117
bin	1502	0
bin	1504	0
bin	1506	0
bin	1508	0
bin	1510	0
bin	1512	0
bin	1514	0
bin	1516	0
bin	1518	0
bin	1520	1
bin	1522	0
bin	1524	0
bin	1526	0
bin	1528	0
bin	1530	0
bin	1532	0
bin	1534	0
bin	1536	0
bin	1538	0
bin	1540	0
bin	1542	0
bin	1544	0
bin	1546	0
bin	1548	0
bin	1550	0
bin	1552	0
bin	1554	0
bin	1556	0
bin	1558	0
bin	1560	0
bin	1562	0
bin	1564	0
bin	1566	0
bin	1568	0
bin	1570	0
bin	1572	0
bin	1574	0
bin	1576	0
bin	1578	0
bin	1580	1
bin	1582	0
bin	1584	0
bin	1586	0
bin	1588	0
bin	1590	1
bin	1592	0
bin	1594	0
bin	1596	0
bin	1598	0
bin	1600	0
bin	1602	0
bin	1604	0
bin	1606	0
bin	1608	0
bin	1610	0
bin	1612	0
bin	1614	0
scalar Net5.rte[4].queue[2] txBytes:count 151
attr interpolationmode none
attr title "transmitting packet byte length, count"
attr unit bytes
scalar Net5.rte[4].queue[2] txBytes:sum 226810
attr interpolationmode none
attr title "transmitting packet byte length, sum"
attr unit bytes
statistic Net5.rte[4].queue[2] txBytes:histogram
field count 151
field mean 1502.0529801325
field stddev 12.399886063708
field min 1500
field max 1600
field sum 226810
field sqrsum 340703700
attr interpolationmode none
attr title "transmitting packet byte length, histogram"
attr unit bytes
bin	-inf	0
bin	1497	0
bin	1499	146
bin	1501	0
bin	1503	0
bin	1505	0
bin	1507	0
bin	1509	1
bin	1511	0
bin	1513	0
bin	1515	0
bin	1517	0
bin	1519	0
bin	1521	0
bin	1523	0
bin	1525	0
bin	1527	0
bin	1529	0
bin	1531	0
bin	1533	0
bin	1535	0
bin	1537	0
bin	1539	0
bin	1541	0
bin	1543	0
bin	1545	0
bin	1547	0
bin	1549	0
bin	1551	0
bin	1553	0
bin	1555	0
bin	1557	0
bin	1559	2
bin	1561	0
bin	1563	0
bin	1565	0
bin	1567	0
bin	1569	0
bin	1571	0
bin	1573	0
bin	1575	0
bin	1577	0
bin	1579	1
bin	1581	0
bin	1583	0
bin	1585	0
bin	1587	0
bin	1589	0
bin	1591	0
bin	1593	0
bin	1595	0
bin	1597	0
bin	1599	1
bin	1601	0
scalar Net5.rte[4].queue[2] busy:timeavg 0.0046548242845474
attr interpolationmode sample-hold
attr title "server busy state, timeavg"
scalar Net5.rte[4].queue[2] qlen:timeavg 0.0036017885540451
attr interpolationmode sample-hold
attr title "queue length, timeavg"
scalar Net5.rte[4].queue[2] qlen:max 5
attr interpolationmode sample-hold
attr title "queue length, max"
scalar Net5.rte[4].queue[2] drop:count 0
attr interpolationmode none
attr title "dropped packet byte length, count"
attr unit bytes
scalar Net5.rte[4].queue[2] drop:sum 0
attr interpolationmode none
attr title "dropped packet byte length, sum"
attr unit bytes
scalar Net5.rte[5].app hopCount:mean 1.5840707964602
attr interpolationmode none
attr title "hop count of arrived packets, mean"
scalar Net5.rte[5].app hopCount:max 2
attr interpolationmode none
attr title "hop count of arrived packets, max"
scalar Net5.rte[5].app endToEndDelay:mean 0.16487069813304
attr interpolationmode none
attr title "end-to-end delay of arrived packets, mean"
attr unit s
scalar Net5.rte[5].app endToEndDelay:max 0.215000000003
attr interpolationmode none
attr title "end-to-end delay of arrived packets, max"
attr unit s
statistic Net5.rte[5].routing outputIf:histogram
field count 634
field mean 0.88643533123028
field stddev 1.3675449017172
field min -1
field max 3
field sum 562
field sqrsum 1682
attr interpolationmode none
attr title "output interface for each routed packet, histogram"
bin	-inf	0
bin	-2	0
bin	-1	113
bin	0	180
bin	1	120
bin	2	108
bin	3	113
bin	4	0
scalar Net5.rte[5].routing drop:count 0
attr interpolationmode none
attr title "dropped packet byte length, count"
attr unit bytes
scalar Net5.rte[5].routing drop:sum 0
attr interpolationmode none
attr title "dropped packet byte length, sum"
attr unit bytes
scalar Net5.rte[5].queue[0] rxBytes:count 181
attr interpolationmode none
attr title "received packet byte length, count"
attr unit bytes
scalar Net5.rte[5].queue[0] rxBytes:sum 271770
attr interpolationmode none
attr title "received packet byte length, sum"
attr unit bytes
statistic Net5.rte[5].queue[0] rxBytes:histogram
field count 181
field mean 1501.4917127072
field stddev 10.513810380488
field min 1500
field max 1610
field sum 271770
field sqrsum 408080300
attr interpolationmode none
attr title "received packet byte length, histogram"
attr unit bytes
bin	-inf	0
bin	1495	0
bin	1497	0
bin	1499	176
bin	1501	0
bin	1503	0
bin	1505	0
bin	1507	0
bin	1509	0
bin	1511	0
bin	1513	0
bin	1515	0
bin	1517	0
bin	1519	2
bin	1521	0
bin	1523	0
bin	1525	0
bin	1527	0
bin	1529	0
bin	1531	0
bin	1533	0
bin	1535	0
bin	1537	0
bin	1539	0
bin	1541	0
bin	1543	0
bin	1545	0
bin	1547	0
bin	1549	1
bin	1551	0
bin	1553	0
bin	1555	0
bin	1557	0
bin	1559	0
bin	1561	0
bin	1563	0
bin	1565	0
bin	1567	0
bin	1569	1
bin	1571	0
bin	1573	0
bin	1575	0
bin	1577	0
bin	1579	0
bin	1581	0
bin	1583	0
bin	1585	0
bin	1587	0
bin	1589	0
bin	1591	0
bin	1593	0
bin	1595	0
bin	1597	0
bin	1599	0
bin	1601	0
bin	1603	0
bin	1605	0
bin	1607	0
bin	1609	1
bin	1611	0
scalar Net5.rte[5].queue[0] txBytes:count 180
attr interpolationmode none
attr title "transmitting packet byte length, count"
attr unit bytes
scalar Net5.rte[5].queue[0] txBytes:sum 270410
attr interpolationmode none
attr title "transmitting packet byte length, sum"
attr unit bytes
statistic Net5.rte[5].queue[0] txBytes:histogram
field count 180
field mean 1502.2777777778
field stddev 12.228301067172
field min 1500
field max 1610
field sum 270410
field sqrsum 406257700
attr interpolationmode none
attr title "transmitting packet byte length, histogram"
attr unit bytes
bin	-inf	0
bin	1487	0
bin	1489	0
bin	1491	0
bin	1493	0
bin	1495	0
bin	1497	0
bin	1499	171
bin	1501	0
bin	1503	0
bin	1505	0
bin	1507	0
bin	1509	2
bin	1511	0
bin	1513	0
bin	1515	0
bin	1517	0
bin	1519	1
bin	1521	0
bin	1523	0
bin	1525	0
bin	1527	0
bin	1529	1
bin	1531	0
bin	1533	0
bin	1535	0
bin	1537	0
bin	1539	1
bin	1541	0
bin	1543	0
bin	1545	0
bin	1547	0
bin	1549	1
bin	1551	0
bin	1553	0
bin	1555	0
bin	1557	0
bin	1559	1
bin	1561	0
bin	1563	0
bin	1565	0
bin	1567	0
bin	1569	0
bin	1571	0
bin	1573	0
bin	1575	0
bin	1577	0
bin	1579	1
bin	1581	0
bin	1583	0
bin	1585	0
bin	1587	0
bin	1589	0
bin	1591	0
bin	1593	0
bin	1595	0
bin	1597	0
bin	1599	0
bin	1601	0
bin	1603	0
bin	1605	0
bin	1607	0
bin	1609	1
bin	1611	0
scalar Net5.rte[5].queue[0] busy:timeavg 0.0055496275948191
attr interpolationmode sample-hold
attr title "server busy state, timeavg"
scalar Net5.rte[5].queue[0] qlen:timeavg 0.0028937446502585
attr interpolationmode sample-hold
attr title "queue length, timeavg"
scalar Net5.rte[5].queue[0] qlen:max 4
attr interpolationmode sample-hold
attr title "queue length, max"
scalar Net5.rte[5].queue[0] drop:count 0
attr interpolationmode none
attr title "dropped packet byte length, count"
attr unit bytes
scalar Net5.rte[5].queue[0] drop:sum 0
attr interpolationmode none
attr title "dropped packet byte length, sum"
attr unit bytes
scalar Net5.rte[5].queue[1] rxBytes:count 151
attr interpolationmode none
attr title "received packet byte length, count"
attr unit bytes
scalar Net5.rte[5].queue[1] rxBytes:sum 226810
attr interpolationmode none
attr title "received packet byte length, sum"
attr unit bytes
statistic Net5.rte[5].queue[1] rxBytes:histogram
field count 151
field mean 1502.0529801325
field stddev 12.399886063708
field min 1500
field max 1600
field sum 226810
field sqrsum 340703700
attr interpolationmode none
attr title "received packet byte length, histogram"
attr unit bytes
bin	-inf	0
bin	1497	0
bin	1499	146
bin	1501	0
bin	1503	0
bin	1505	0
bin	1507	0
bin	1509	1
bin	1511	0
bin	1513	0
bin	1515	0
bin	1517	0
bin	1519	0
bin	1521	0
bin	1523	0
bin	1525	0
bin	1527	0
bin	1529	0
bin	1531	0
bin	1533	0
bin	1535	0
bin	1537	0
bin	1539	0
bin	1541	0
bin	1543	0
bin	1545	0
bin	1547	0
bin	1549	0
bin	1551	0
bin	1553	0
bin	1555	0
bin	1557	0
bin	1559	2
bin	1561	0
bin	1563	0
bin	1565	0
bin	1567	0
bin	1569	0
bin	1571	0
bin	1573	0
bin	1575	0
bin	1577	0
bin	1579	1
bin	1581	0
bin	1583	0
bin	1585	0
bin	1587	0
bin	1589	0
bin	1591	0
bin	1593	0
bin	1595	0
bin	1597	0
bin	1599	1
bin	1601	0
scalar Net5.rte[5].queue[1] txBytes:count 120
attr interpolationmode none
attr title "transmitting packet byte length, count"
attr unit bytes
scalar Net5.rte[5].queue[1] txBytes:sum 180190
attr interpolationmode none
attr title "transmitting packet byte length, sum"
attr unit bytes
statistic Net5.rte[5].queue[1] txBytes:histogram
field count 120
field mean 1501.5833333333
field stddev 11.076193968566
field min 1500
field max 1590
field sum 180190
field sqrsum 270584900
attr interpolationmode none
attr title "transmitting packet byte length, histogram"
attr unit bytes
bin	-inf	0
bin	1476	0
bin	1478	0
bin	1480	0
bin	1482	0
bin	1484	0
bin	1486	0
bin	1488	0
bin	1490	0
bin	1492	0
bin	1494	0
bin	1496	0
bin	1498	0
bin	1500	117
bin	1502	0
bin	1504	0
bin	1506	0
bin	1508	0
bin	1510	0
bin	1512	0
bin	1514	0
bin	1516	0
bin	1518	0
bin	1520	1
bin	1522	0
bin	1524	0
bin	1526	0
bin	1528	0
bin	1530	0
bin	1532	0
bin	1534	0
bin	1536	0
bin	1538	0
bin	1540	0
bin	1542	0
bin	1544	0
bin	1546	0
bin	1548	0
bin	1550	0
bin	1552	0
bin	1554	0
bin	1556	0
bin	1558	0
bin	1560	0
bin	1562	0
bin	1564	0
bin	1566	0
bin	1568	0
bin	1570	0
bin	1572	0
bin	1574	0
bin	1576	0
bin	1578	0
bin	1580	1
bin	1582	0
bin	1584	0
bin	1586	0
bin	1588	0
bin	1590	1
bin	1592	0
bin	1594	0
bin	1596	0
bin	1598	0
bin	1600	0
bin	1602	0
bin	1604	0
bin	1606	0
bin	1608	0
bin	1610	0
bin	1612	0
bin	1614	0
scalar Net5.rte[5].queue[1] busy:timeavg 0.0036980414789338
attr interpolationmode sample-hold
attr title "server busy state, timeavg"
scalar Net5.rte[5].queue[1] qlen:timeavg 0.0011698116671258
attr interpolationmode sample-hold
attr title "queue length, timeavg"
scalar Net5.rte[5].queue[1] qlen:max 3
attr interpolationmode sample-hold
attr title "queue length, max"
scalar Net5.rte[5].queue[1] drop:count 0
attr interpolationmode none
attr title "dropped packet byte length, count"
attr unit bytes
scalar Net5.rte[5].queue[1] drop:sum 0
attr interpolationmode none
attr title "dropped packet byte length, sum"
attr unit bytes
scalar Net5.rte[5].queue[2] rxBytes:count 77
attr interpolationmode none
attr title "received packet byte length, count"
attr unit bytes
scalar Net5.rte[5].queue[2] rxBytes:sum 115620
attr interpolationmode none
attr title "received packet byte length, sum"
attr unit bytes
statistic Net5.rte[5].queue[2] rxBytes:histogram
field count 77
field mean 1501.5584415584
field stddev 7.9579379544333
field min 1500
field max 1560
field sum 115620
field sqrsum 173615000
attr interpolationmode none
attr title "received packet byte length, histogram"
attr unit bytes
bin	-inf	0
bin	1485	0
bin	1486	0
bin	1487	0
bin	1488	0
bin	1489	0
bin	1490	0
bin	1491	0
bin	1492	0
bin	1493	0
bin	1494	0
bin	1495	0
bin	1496	0
bin	1497	0
bin	1498	0
bin	1499	0
bin	1500	73
bin	1501	0
bin	1502	0
bin	1503	0
bin	1504	0
bin	1505	0
bin	1506	0
bin	1507	0
bin	1508	0
bin	1509	0
bin	1510	1
bin	1511	0
bin	1512	0
bin	1513	0
bin	1514	0
bin	1515	0
bin	1516	0
bin	1517	0
bin	1518	0
bin	1519	0
bin	1520	1
bin	1521	0
bin	1522	0
bin	1523	0
bin	1524	0
bin	1525	0
bin	1526	0
bin	1527	0
bin	1528	0
bin	1529	0
bin	1530	1
bin	1531	0
bin	1532	0
bin	1533	0
bin	1534	0
bin	1535	0
bin	1536	0
bin	1537	0
bin	1538	0
bin	1539	0
bin	1540	0
bin	1541	0
bin	1542	0
bin	1543	0
bin	1544	0
bin	1545	0
bin	1546	0
bin	1547	0
bin	1548	0
bin	1549	0
bin	1550	0
bin	1551	0
bin	1552	0
bin	1553	0
bin	1554	0
bin	1555	0
bin	1556	0
bin	1557	0
bin	1558	0
bin	1559	0
bin	1560	1
bin	1561	0
bin	1562	0
bin	1563	0
bin	1564	0
bin	1565	0
bin	1566	0
bin	1567	0
bin	1568	0
bin	1569	0
bin	1570	0
bin	1571	0
bin	1572	0
bin	1573	0
bin	1574	0
bin	1575	0
scalar Net5.rte[5].queue[2] txBytes:count 108
attr interpolationmode none
attr title "transmitting packet byte length, count"
attr unit bytes
scalar Net5.rte[5].queue[2] txBytes:sum 162180
attr interpolationmode none
attr title "transmitting packet byte length, sum"
attr unit bytes
statistic Net5.rte[5].queue[2] txBytes:histogram
field count 108
field mean 1501.6666666667
field stddev 12.266510902438
field min 1500
field max 1600
field sum 162180
field sqrsum 243556400
attr interpolationmode none
attr title "transmitting packet byte length, histogram"
attr unit bytes
bin	-inf	0
bin	1499	106
bin	1501	0
bin	1503	0
bin	1505	0
bin	1507	0
bin	1509	0
bin	1511	0
bin	1513	0
bin	1515	0
bin	1517	0
bin	1519	0
bin	1521	0
bin	1523	0
bin	1525	0
bin	1527	0
bin	1529	0
bin	1531	0
bin	1533	0
bin	1535	0
bin	1537	0
bin	1539	0
bin	1541	0
bin	1543	0
bin	1545	0
bin	1547	0
bin	1549	0
bin	1551	0
bin	1553	0
bin	1555	0
bin	1557	0
bin	1559	0
bin	1561	0
bin	1563	0
bin	1565	0
bin	1567	0
bin	1569	0
bin	1571	0
bin	1573	0
bin	1575	0
bin	1577	0
bin	1579	1
bin	1581	0
bin	1583	0
bin	1585	0
bin	1587	0
bin	1589	0
bin	1591	0
bin	1593	0
bin	1595	0
bin	1597	0
bin	1599	1
bin	1601	0
scalar Net5.rte[5].queue[2] busy:timeavg 0.0033284220381476
attr interpolationmode sample-hold
attr title "server busy state, timeavg"
scalar Net5.rte[5].queue[2] qlen:timeavg 3.0784517555941e-005
attr interpolationmode sample-hold
attr title "queue length, timeavg"
scalar Net5.rte[5].queue[2] qlen:max 1
attr interpolationmode sample-hold
attr title "queue length, max"
scalar Net5.rte[5].queue[2] drop:count 0
attr interpolationmode none
attr title "dropped packet byte length, count"
attr unit bytes
scalar Net5.rte[5].queue[2] drop:sum 0
attr interpolationmode none
attr title "dropped packet byte length, sum"
attr unit bytes
scalar Net5.rte[5].queue[3] rxBytes:count 102
attr interpolationmode none
attr title "received packet byte length, count"
attr unit bytes
scalar Net5.rte[5].queue[3] rxBytes:sum 153170
attr interpolationmode none
attr title "received packet byte length, sum"
attr unit bytes
statistic Net5.rte[5].queue[3] rxBytes:histogram
field count 102
field mean 1501.6666666667
field stddev 9.448488100889
field min 1500
field max 1580
field sum 153170
field sqrsum 230019300
attr interpolationmode none
attr title "received packet byte length, histogram"
attr unit bytes
bin	-inf	0
bin	1480	0
bin	1482	0
bin	1484	0
bin	1486	0
bin	1488	0
bin	1490	0
bin	1492	0
bin	1494	0
bin	1496	0
bin	1498	0
bin	1500	98
bin	1502	0
bin	1504	0
bin	1506	0
bin	1508	0
bin	1510	0
bin	1512	0
bin	1514	0
bin	1516	0
bin	1518	0
bin	1520	1
bin	1522	0
bin	1524	0
bin	1526	0
bin	1528	0
bin	1530	1
bin	1532	0
bin	1534	0
bin	1536	0
bin	1538	0
bin	1540	1
bin	1542	0
bin	1544	0
bin	1546	0
bin	1548	0
bin	1550	0
bin	1552	0
bin	1554	0
bin	1556	0
bin	1558	0
bin	1560	0
bin	1562	0
bin	1564	0
bin	1566	0
bin	1568	0
bin	1570	0
bin	1572	0
bin	1574	0
bin	1576	0
bin	1578	0
bin	1580	1
bin	1582	0
bin	1584	0
bin	1586	0
bin	1588	0
bin	1590	0
bin	1592	0
bin	1594	0
bin	1596	0
bin	1598	0
bin	1600	0
scalar Net5.rte[5].queue[3] txBytes:count 113
attr interpolationmode none
attr title "transmitting packet byte length, count"
attr unit bytes
scalar Net5.rte[5].queue[3] txBytes:sum 169700
attr interpolationmode none
attr title "transmitting packet byte length, sum"
attr unit bytes
statistic Net5.rte[5].queue[3] txBytes:histogram
field count 113
field mean 1501.7699115044
field stddev 9.9310199893001
field min 1500
field max 1570
field sum 169700
field sqrsum 254861400
attr interpolationmode none
attr title "transmitting packet byte length, histogram"
attr unit bytes
bin	-inf	0
bin	1495	0
bin	1496	0
bin	1497	0
bin	1498	0
bin	1499	0
bin	1500	109
bin	1501	0
bin	1502	0
bin	1503	0
bin	1504	0
bin	1505	0
bin	1506	0
bin	1507	0
bin	1508	0
bin	1509	0
bin	1510	0
bin	1511	0
bin	1512	0
bin	1513	0
bin	1514	0
bin	1515	0
bin	1516	0
bin	1517	0
bin	1518	0
bin	1519	0
bin	1520	1
bin	1521	0
bin	1522	0
bin	1523	0
bin	1524	0
bin	1525	0
bin	1526	0
bin	1527	0
bin	1528	0
bin	1529	0
bin	1530	0
bin	1531	0
bin	1532	0
bin	1533	0
bin	1534	0
bin	1535	0
bin	1536	0
bin	1537	0
bin	1538	0
bin	1539	0
bin	1540	0
bin	1541	0
bin	1542	0
bin	1543	0
bin	1544	0
bin	1545	0
bin	1546	0
bin	1547	0
bin	1548	0
bin	1549	0
bin	1550	1
bin	1551	0
bin	1552	0
bin	1553	0
bin	1554	0
bin	1555	0
bin	1556	0
bin	1557	0
bin	1558	0
bin	1559	0
bin	1560	1
bin	1561	0
bin	1562	0
bin	1563	0
bin	1564	0
bin	1565	0
bin	1566	0
bin	1567	0
bin	1568	0
bin	1569	0
bin	1570	1
bin	1571	0
scalar Net5.rte[5].queue[3] busy:timeavg 0.0034827550861202
attr interpolationmode sample-hold
attr title "server busy state, timeavg"
scalar Net5.rte[5].queue[3] qlen:timeavg 3.0784517555941e-005
attr interpolationmode sample-hold
attr title "queue length, timeavg"
scalar Net5.rte[5].queue[3] qlen:max 1
attr interpolationmode sample-hold
attr title "queue length, max"
scalar Net5.rte[5].queue[3] drop:count 0
attr interpolationmode none
attr title "dropped packet byte length, count"
attr unit bytes
scalar Net5.rte[5].queue[3] drop:sum 0
attr interpolationmode none
attr title "dropped packet byte length, sum"
attr unit bytes
scalar Net5.rte[6].app hopCount:mean 2.4814814814815
attr interpolationmode none
attr title "hop count of arrived packets, mean"
scalar Net5.rte[6].app hopCount:max 3
attr interpolationmode none
attr title "hop count of arrived packets, max"
scalar Net5.rte[6].app endToEndDelay:mean 0.25701172839683
attr interpolationmode none
attr title "end-to-end delay of arrived packets, mean"
attr unit s
scalar Net5.rte[6].app endToEndDelay:max 0.318333333337
attr interpolationmode none
attr title "end-to-end delay of arrived packets, max"
attr unit s
statistic Net5.rte[6].routing outputIf:histogram
field count 185
field mean -0.58378378378378
field stddev 0.49426796635195
field min -1
field max 0
field sum -108
field sqrsum 108
attr interpolationmode none
attr title "output interface for each routed packet, histogram"
bin	-inf	0
bin	-2	0
bin	-1	108
bin	0	77
bin	1	0
scalar Net5.rte[6].routing drop:count 0
attr interpolationmode none
attr title "dropped packet byte length, count"
attr unit bytes
scalar Net5.rte[6].routing drop:sum 0
attr interpolationmode none
attr title "dropped packet byte length, sum"
attr unit bytes
scalar Net5.rte[6].queue[0] rxBytes:count 108
attr interpolationmode none
attr title "received packet byte length, count"
attr unit bytes
scalar Net5.rte[6].queue[0] rxBytes:sum 162180
attr interpolationmode none
attr title "received packet byte length, sum"
attr unit bytes
statistic Net5.rte[6].queue[0] rxBytes:histogram
field count 108
field mean 1501.6666666667
field stddev 12.266510902438
field min 1500
field max 1600
field sum 162180
field sqrsum 243556400
attr interpolationmode none
attr title "received packet byte length, histogram"
attr unit bytes
bin	-inf	0
bin	1499	106
bin	1501	0
bin	1503	0
bin	1505	0
bin	1507	0
bin	1509	0
bin	1511	0
bin	1513	0
bin	1515	0
bin	1517	0
bin	1519	0
bin	1521	0
bin	1523	0
bin	1525	0
bin	1527	0
bin	1529	0
bin	1531	0
bin	1533	0
bin	1535	0
bin	1537	0
bin	1539	0
bin	1541	0
bin	1543	0
bin	1545	0
bin	1547	0
bin	1549	0
bin	1551	0
bin	1553	0
bin	1555	0
bin	1557	0
bin	1559	0
bin	1561	0
bin	1563	0
bin	1565	0
bin	1567	0
bin	1569	0
bin	1571	0
bin	1573	0
bin	1575	0
bin	1577	0
bin	1579	1
bin	1581	0
bin	1583	0
bin	1585	0
bin	1587	0
bin	1589	0
bin	1591	0
bin	1593	0
bin	1595	0
bin	1597	0
bin	1599	1
bin	1601	0
scalar Net5.rte[6].queue[0] txBytes:count 77
attr interpolationmode none
attr title "transmitting packet byte length, count"
attr unit bytes
scalar Net5.rte[6].queue[0] txBytes:sum 115620
attr interpolationmode none
attr title "transmitting packet byte length, sum"
attr unit bytes
statistic Net5.rte[6].queue[0] txBytes:histogram
field count 77
field mean 1501.5584415584
field stddev 7.9579379544333
field min 1500
field max 1560
field sum 115620
field sqrsum 173615000
attr interpolationmode none
attr title "transmitting packet byte length, histogram"
attr unit bytes
bin	-inf	0
bin	1485	0
bin	1486	0
bin	1487	0
bin	1488	0
bin	1489	0
bin	1490	0
bin	1491	0
bin	1492	0
bin	1493	0
bin	1494	0
bin	1495	0
bin	1496	0
bin	1497	0
bin	1498	0
bin	1499	0
bin	1500	73
bin	1501	0
bin	1502	0
bin	1503	0
bin	1504	0
bin	1505	0
bin	1506	0
bin	1507	0
bin	1508	0
bin	1509	0
bin	1510	1
bin	1511	0
bin	1512	0
bin	1513	0
bin	1514	0
bin	1515	0
bin	1516	0
bin	1517	0
bin	1518	0
bin	1519	0
bin	1520	1
bin	1521	0
bin	1522	0
bin	1523	0
bin	1524	0
bin	1525	0
bin	1526	0
bin	1527	0
bin	1528	0
bin	1529	0
bin	1530	1
bin	1531	0
bin	1532	0
bin	1533	0
bin	1534	0
bin	1535	0
bin	1536	0
bin	1537	0
bin	1538	0
bin	1539	0
bin	1540	0
bin	1541	0
bin	1542	0
bin	1543	0
bin	1544	0
bin	1545	0
bin	1546	0
bin	1547	0
bin	1548	0
bin	1549	0
bin	1550	0
bin	1551	0
bin	1552	0
bin	1553	0
bin	1554	0
bin	1555	0
bin	1556	0
bin	1557	0
bin	1558	0
bin	1559	0
bin	1560	1
bin	1561	0
bin	1562	0
bin	1563	0
bin	1564	0
bin	1565	0
bin	1566	0
bin	1567	0
bin	1568	0
bin	1569	0
bin	1570	0
bin	1571	0
bin	1572	0
bin	1573	0
bin	1574	0
bin	1575	0
scalar Net5.rte[6].queue[0] busy:timeavg 0.0023728706131868
attr interpolationmode sample-hold
attr title "server busy state, timeavg"
scalar Net5.rte[6].queue[0] qlen:timeavg 0.0083118197401041
attr interpolationmode sample-hold
attr title "queue length, timeavg"
scalar Net5.rte[6].queue[0] qlen:max 9
attr interpolationmode sample-hold
attr title "queue length, max"
scalar Net5.rte[6].queue[0] drop:count 0
attr interpolationmode none
attr title "dropped packet byte length, count"
attr unit bytes
scalar Net5.rte[6].queue[0] drop:sum 0
attr interpolationmode none
attr title "dropped packet byte length, sum"
attr unit bytes
scalar Net5.rte[7].app hopCount:mean 2.4778761061947
attr interpolationmode none
attr title "hop count of arrived packets, mean"
scalar Net5.rte[7].app hopCount:max 3
attr interpolationmode none
attr title "hop count of arrived packets, max"
scalar Net5.rte[7].app endToEndDelay:mean 0.25732045231258
attr interpolationmode none
attr title "end-to-end delay of arrived packets, mean"
attr unit s
scalar Net5.rte[7].app endToEndDelay:max 0.320000000004
attr interpolationmode none
attr title "end-to-end delay of arrived packets, max"
attr unit s
statistic Net5.rte[7].routing outputIf:histogram
field count 215
field mean -0.52558139534884
field stddev 0.50051049792263
field min -1
field max 0
field sum -113
field sqrsum 113
attr interpolationmode none
attr title "output interface for each routed packet, histogram"
bin	-inf	0
bin	-2	0
bin	-1	113
bin	0	102
bin	1	0
scalar Net5.rte[7].routing drop:count 0
attr interpolationmode none
attr title "dropped packet byte length, count"
attr unit bytes
scalar Net5.rte[7].routing drop:sum 0
attr interpolationmode none
attr title "dropped packet byte length, sum"
attr unit bytes
scalar Net5.rte[7].queue[0] rxBytes:count 113
attr interpolationmode none
attr title "received packet byte length, count"
attr unit bytes
scalar Net5.rte[7].queue[0] rxBytes:sum 169700
attr interpolationmode none
attr title "received packet byte length, sum"
attr unit bytes
statistic Net5.rte[7].queue[0] rxBytes:histogram
field count 113
field mean 1501.7699115044
field stddev 9.9310199893001
field min 1500
field max 1570
field sum 169700
field sqrsum 254861400
attr interpolationmode none
attr title "received packet byte length, histogram"
attr unit bytes
bin	-inf	0
bin	1495	0
bin	1496	0
bin	1497	0
bin	1498	0
bin	1499	0
bin	1500	109
bin	1501	0
bin	1502	0
bin	1503	0
bin	1504	0
bin	1505	0
bin	1506	0
bin	1507	0
bin	1508	0
bin	1509	0
bin	1510	0
bin	1511	0
bin	1512	0
bin	1513	0
bin	1514	0
bin	1515	0
bin	1516	0
bin	1517	0
bin	1518	0
bin	1519	0
bin	1520	1
bin	1521	0
bin	1522	0
bin	1523	0
bin	1524	0
bin	1525	0
bin	1526	0
bin	1527	0
bin	1528	0
bin	1529	0
bin	1530	0
bin	1531	0
bin	1532	0
bin	1533	0
bin	1534	0
bin	1535	0
bin	1536	0
bin	1537	0
bin	1538	0
bin	1539	0
bin	1540	0
bin	1541	0
bin	1542	0
bin	1543	0
bin	1544	0
bin	1545	0
bin	1546	0
bin	1547	0
bin	1548	0
bin	1549	0
bin	1550	1
bin	1551	0
bin	1552	0
bin	1553	0
bin	1554	0
bin	1555	0
bin	1556	0
bin	1557	0
bin	1558	0
bin	1559	0
bin	1560	1
bin	1561	0
bin	1562	0
bin	1563	0
bin	1564	0
bin	1565	0
bin	1566	0
bin	1567	0
bin	1568	0
bin	1569	0
bin	1570	1
bin	1571	0
scalar Net5.rte[7].queue[0] txBytes:count 102
attr interpolationmode none
attr title "transmitting packet byte length, count"
attr unit bytes
scalar Net5.rte[7].queue[0] txBytes:sum 153170
attr interpolationmode none
attr title "transmitting packet byte length, sum"
attr unit bytes
statistic Net5.rte[7].queue[0] txBytes:histogram
field count 102
field mean 1501.6666666667
field stddev 9.448488100889
field min 1500
field max 1580
field sum 153170
field sqrsum 230019300
attr interpolationmode none
attr title "transmitting packet byte length, histogram"
attr unit bytes
bin	-inf	0
bin	1480	0
bin	1482	0
bin	1484	0
bin	1486	0
bin	1488	0
bin	1490	0
bin	1492	0
bin	1494	0
bin	1496	0
bin	1498	0
bin	1500	98
bin	1502	0
bin	1504	0
bin	1506	0
bin	1508	0
bin	1510	0
bin	1512	0
bin	1514	0
bin	1516	0
bin	1518	0
bin	1520	1
bin	1522	0
bin	1524	0
bin	1526	0
bin	1528	0
bin	1530	1
bin	1532	0
bin	1534	0
bin	1536	0
bin	1538	0
bin	1540	1
bin	1542	0
bin	1544	0
bin	1546	0
bin	1548	0
bin	1550	0
bin	1552	0
bin	1554	0
bin	1556	0
bin	1558	0
bin	1560	0
bin	1562	0
bin	1564	0
bin	1566	0
bin	1568	0
bin	1570	0
bin	1572	0
bin	1574	0
bin	1576	0
bin	1578	0
bin	1580	1
bin	1582	0
bin	1584	0
bin	1586	0
bin	1588	0
bin	1590	0
bin	1592	0
bin	1594	0
bin	1596	0
bin	1598	0
bin	1600	0
scalar Net5.rte[7].queue[0] busy:timeavg 0.0031435097026785
attr interpolationmode sample-hold
attr title "server busy state, timeavg"
scalar Net5.rte[7].queue[0] qlen:timeavg 0.011082426320139
attr interpolationmode sample-hold
attr title "queue length, timeavg"
scalar Net5.rte[7].queue[0] qlen:max 9
attr interpolationmode sample-hold
attr title "queue length, max"
scalar Net5.rte[7].queue[0] drop:count 0
attr interpolationmode none
attr title "dropped packet byte length, count"
attr unit bytes
scalar Net5.rte[7].queue[0] drop:sum 0
attr interpolationmode none
attr title "dropped packet byte length, sum"
attr unit bytes
scalar Net5.rte[8].app hopCount:mean 1.9115044247788
attr interpolationmode none
attr title "hop count of arrived packets, mean"
scalar Net5.rte[8].app hopCount:max 3
attr interpolationmode none
attr title "hop count of arrived packets, max"
scalar Net5.rte[8].app endToEndDelay:mean 0.19909164208613
attr interpolationmode none
attr title "end-to-end delay of arrived packets, mean"
attr unit s
scalar Net5.rte[8].app endToEndDelay:max 0.318333333337
attr interpolationmode none
attr title "end-to-end delay of arrived packets, max"
attr unit s
statistic Net5.rte[8].routing outputIf:histogram
field count 321
field mean -0.02803738317757
field stddev 0.82300452525981
field min -1
field max 1
field sum -9
field sqrsum 217
attr interpolationmode none
attr title "output interface for each routed packet, histogram"
bin	-inf	0
bin	-2	0
bin	-1	113
bin	0	104
bin	1	104
bin	2	0
scalar Net5.rte[8].routing drop:count 0
attr interpolationmode none
attr title "dropped packet byte length, count"
attr unit bytes
scalar Net5.rte[8].routing drop:sum 0
attr interpolationmode none
attr title "dropped packet byte length, sum"
attr unit bytes
scalar Net5.rte[8].queue[0] rxBytes:count 84
attr interpolationmode none
attr title "received packet byte length, count"
attr unit bytes
scalar Net5.rte[8].queue[0] rxBytes:sum 126100
attr interpolationmode none
attr title "received packet byte length, sum"
attr unit bytes
statistic Net5.rte[8].queue[0] rxBytes:histogram
field count 84
field mean 1501.1904761905
field stddev 8.9718115328056
field min 1500
field max 1580
field sum 126100
field sqrsum 189306800
attr interpolationmode none
attr title "received packet byte length, histogram"
attr unit bytes
bin	-inf	0
bin	1480	0
bin	1482	0
bin	1484	0
bin	1486	0
bin	1488	0
bin	1490	0
bin	1492	0
bin	1494	0
bin	1496	0
bin	1498	0
bin	1500	82
bin	1502	0
bin	1504	0
bin	1506	0
bin	1508	0
bin	1510	0
bin	1512	0
bin	1514	0
bin	1516	0
bin	1518	0
bin	1520	1
bin	1522	0
bin	1524	0
bin	1526	0
bin	1528	0
bin	1530	0
bin	1532	0
bin	1534	0
bin	1536	0
bin	1538	0
bin	1540	0
bin	1542	0
bin	1544	0
bin	1546	0
bin	1548	0
bin	1550	0
bin	1552	0
bin	1554	0
bin	1556	0
bin	1558	0
bin	1560	0
bin	1562	0
bin	1564	0
bin	1566	0
bin	1568	0
bin	1570	0
bin	1572	0
bin	1574	0
bin	1576	0
bin	1578	0
bin	1580	1
bin	1582	0
bin	1584	0
bin	1586	0
bin	1588	0
bin	1590	0
bin	1592	0
bin	1594	0
bin	1596	0
bin	1598	0
bin	1600	0
scalar Net5.rte[8].queue[0] txBytes:count 104
attr interpolationmode none
attr title "transmitting packet byte length, count"
attr unit bytes
scalar Net5.rte[8].queue[0] txBytes:sum 156290
attr interpolationmode none
attr title "transmitting packet byte length, sum"
attr unit bytes
statistic Net5.rte[8].queue[0] txBytes:histogram
field count 104
field mean 1502.7884615385
field stddev 14.173456030999
field min 1500
field max 1590
field sum 156290
field sqrsum 234891500
attr interpolationmode none
attr title "transmitting packet byte length, histogram"
attr unit bytes
bin	-inf	0
bin	1476	0
bin	1478	0
bin	1480	0
bin	1482	0
bin	1484	0
bin	1486	0
bin	1488	0
bin	1490	0
bin	1492	0
bin	1494	0
bin	1496	0
bin	1498	0
bin	1500	99
bin	1502	0
bin	1504	0
bin	1506	0
bin	1508	0
bin	1510	1
bin	1512	0
bin	1514	0
bin	1516	0
bin	1518	0
bin	1520	0
bin	1522	0
bin	1524	0
bin	1526	0
bin	1528	0
bin	1530	0
bin	1532	0
bin	1534	0
bin	1536	0
bin	1538	0
bin	1540	1
bin	1542	0
bin	1544	0
bin	1546	0
bin	1548	0
bin	1550	0
bin	1552	0
bin	1554	0
bin	1556	0
bin	1558	0
bin	1560	1
bin	1562	0
bin	1564	0
bin	1566	0
bin	1568	0
bin	1570	0
bin	1572	0
bin	1574	0
bin	1576	0
bin	1578	0
bin	1580	0
bin	1582	0
bin	1584	0
bin	1586	0
bin	1588	0
bin	1590	2
bin	1592	0
bin	1594	0
bin	1596	0
bin	1598	0
bin	1600	0
bin	1602	0
bin	1604	0
bin	1606	0
bin	1608	0
bin	1610	0
bin	1612	0
bin	1614	0
scalar Net5.rte[8].queue[0] busy:timeavg 0.0032075414991882
attr interpolationmode sample-hold
attr title "server busy state, timeavg"
scalar Net5.rte[8].queue[0] qlen:timeavg 0.0028321756151466
attr interpolationmode sample-hold
attr title "queue length, timeavg"
scalar Net5.rte[8].queue[0] qlen:max 4
attr interpolationmode sample-hold
attr title "queue length, max"
scalar Net5.rte[8].queue[0] drop:count 0
attr interpolationmode none
attr title "dropped packet byte length, count"
attr unit bytes
scalar Net5.rte[8].queue[0] drop:sum 0
attr interpolationmode none
attr title "dropped packet byte length, sum"
attr unit bytes
scalar Net5.rte[8].queue[1] rxBytes:count 105
attr interpolationmode none
attr title "received packet byte length, count"
attr unit bytes
scalar Net5.rte[8].queue[1] rxBytes:sum 157860
attr interpolationmode none
attr title "received packet byte length, sum"
attr unit bytes
statistic Net5.rte[8].queue[1] rxBytes:histogram
field count 105
field mean 1503.4285714286
field stddev 14.533024159089
field min 1500
field max 1590
field sum 157860
field sqrsum 237353200
attr interpolationmode none
attr title "received packet byte length, histogram"
attr unit bytes
bin	-inf	0
bin	1476	0
bin	1478	0
bin	1480	0
bin	1482	0
bin	1484	0
bin	1486	0
bin	1488	0
bin	1490	0
bin	1492	0
bin	1494	0
bin	1496	0
bin	1498	0
bin	1500	98
bin	1502	0
bin	1504	0
bin	1506	0
bin	1508	0
bin	1510	1
bin	1512	0
bin	1514	0
bin	1516	0
bin	1518	0
bin	1520	0
bin	1522	0
bin	1524	0
bin	1526	0
bin	1528	0
bin	1530	1
bin	1532	0
bin	1534	0
bin	1536	0
bin	1538	0
bin	1540	1
bin	1542	0
bin	1544	0
bin	1546	0
bin	1548	0
bin	1550	1
bin	1552	0
bin	1554	0
bin	1556	0
bin	1558	0
bin	1560	1
bin	1562	0
bin	1564	0
bin	1566	0
bin	1568	0
bin	1570	0
bin	1572	0
bin	1574	0
bin	1576	0
bin	1578	0
bin	1580	1
bin	1582	0
bin	1584	0
bin	1586	0
bin	1588	0
bin	1590	1
bin	1592	0
bin	1594	0
bin	1596	0
bin	1598	0
bin	1600	0
bin	1602	0
bin	1604	0
bin	1606	0
bin	1608	0
bin	1610	0
bin	1612	0
bin	1614	0
scalar Net5.rte[8].queue[1] txBytes:count 104
attr interpolationmode none
attr title "transmitting packet byte length, count"
attr unit bytes
scalar Net5.rte[8].queue[1] txBytes:sum 156240
attr interpolationmode none
attr title "transmitting packet byte length, sum"
attr unit bytes
statistic Net5.rte[8].queue[1] txBytes:histogram
field count 104
field mean 1502.3076923077
field stddev 14.089228084633
field min 1500
field max 1610
field sum 156240
field sqrsum 234741000
attr interpolationmode none
attr title "transmitting packet byte length, histogram"
attr unit bytes
bin	-inf	0
bin	1472	0
bin	1474	0
bin	1476	0
bin	1478	0
bin	1480	0
bin	1482	0
bin	1484	0
bin	1486	0
bin	1488	0
bin	1490	0
bin	1492	0
bin	1494	0
bin	1496	0
bin	1498	0
bin	1500	101
bin	1502	0
bin	1504	0
bin	1506	0
bin	1508	0
bin	1510	0
bin	1512	0
bin	1514	0
bin	1516	0
bin	1518	0
bin	1520	0
bin	1522	0
bin	1524	0
bin	1526	0
bin	1528	0
bin	1530	0
bin	1532	0
bin	1534	0
bin	1536	0
bin	1538	0
bin	1540	0
bin	1542	0
bin	1544	0
bin	1546	0
bin	1548	0
bin	1550	1
bin	1552	0
bin	1554	0
bin	1556	0
bin	1558	0
bin	1560	0
bin	1562	0
bin	1564	0
bin	1566	0
bin	1568	0
bin	1570	0
bin	1572	0
bin	1574	0
bin	1576	0
bin	1578	0
bin	1580	1
bin	1582	0
bin	1584	0
bin	1586	0
bin	1588	0
bin	1590	0
bin	1592	0
bin	1594	0
bin	1596	0
bin	1598	0
bin	1600	0
bin	1602	0
bin	1604	0
bin	1606	0
bin	1608	0
bin	1610	1
bin	1612	0
bin	1614	0
bin	1616	0
bin	1618	0
bin	1620	0
bin	1622	0
bin	1624	0
bin	1626	0
bin	1628	0
bin	1630	0
bin	1632	0
bin	1634	0
bin	1636	0
bin	1638	0
scalar Net5.rte[8].queue[1] busy:timeavg 0.0032065153486135
attr interpolationmode sample-hold
attr title "server busy state, timeavg"
scalar Net5.rte[8].queue[1] qlen:timeavg 0.0049255228089506
attr interpolationmode sample-hold
attr title "queue length, timeavg"
scalar Net5.rte[8].queue[1] qlen:max 5
attr interpolationmode sample-hold
attr title "queue length, max"
scalar Net5.rte[8].queue[1] drop:count 0
attr interpolationmode none
attr title "dropped packet byte length, count"
attr unit bytes
scalar Net5.rte[8].queue[1] drop:sum 0
attr interpolationmode none
attr title "dropped packet byte length, sum"
attr unit bytes
scalar Net5.rte[9].app hopCount:mean 1.9322033898305
attr interpolationmode none
attr title "hop count of arrived packets, mean"
scalar Net5.rte[9].app hopCount:max 3
attr interpolationmode none
attr title "hop count of arrived packets, max"
scalar Net5.rte[9].app endToEndDelay:mean 0.20088587570768
attr interpolationmode none
attr title "end-to-end delay of arrived packets, mean"
attr unit s
scalar Net5.rte[9].app endToEndDelay:max 0.320000000004
attr interpolationmode none
attr title "end-to-end delay of arrived packets, max"
attr unit s
statistic Net5.rte[9].routing outputIf:histogram
field count 284
field mean -0.098591549295775
field stddev 0.85160301269767
field min -1
field max 1
field sum -28
field sqrsum 208
attr interpolationmode none
attr title "output interface for each routed packet, histogram"
bin	-inf	0
bin	-2	0
bin	-1	118
bin	0	76
bin	1	90
bin	2	0
scalar Net5.rte[9].routing drop:count 0
attr interpolationmode none
attr title "dropped packet byte length, count"
attr unit bytes
scalar Net5.rte[9].routing drop:sum 0
attr interpolationmode none
attr title "dropped packet byte length, sum"
attr unit bytes
scalar Net5.rte[9].queue[0] rxBytes:count 58
attr interpolationmode none
attr title "received packet byte length, count"
attr unit bytes
scalar Net5.rte[9].queue[0] rxBytes:sum 87260
attr interpolationmode none
attr title "received packet byte length, sum"
attr unit bytes
statistic Net5.rte[9].queue[0] rxBytes:histogram
field count 58
field mean 1504.4827586207
field stddev 15.579159920726
field min 1500
field max 1580
field sum 87260
field sqrsum 131295000
attr interpolationmode none
attr title "received packet byte length, histogram"
attr unit bytes
bin	-inf	0
bin	1480	0
bin	1482	0
bin	1484	0
bin	1486	0
bin	1488	0
bin	1490	0
bin	1492	0
bin	1494	0
bin	1496	0
bin	1498	0
bin	1500	52
bin	1502	0
bin	1504	0
bin	1506	0
bin	1508	0
bin	1510	1
bin	1512	0
bin	1514	0
bin	1516	0
bin	1518	0
bin	1520	1
bin	1522	0
bin	1524	0
bin	1526	0
bin	1528	0
bin	1530	0
bin	1532	0
bin	1534	0
bin	1536	0
bin	1538	0
bin	1540	2
bin	1542	0
bin	1544	0
bin	1546	0
bin	1548	0
bin	1550	0
bin	1552	0
bin	1554	0
bin	1556	0
bin	1558	0
bin	1560	0
bin	1562	0
bin	1564	0
bin	1566	0
bin	1568	0
bin	1570	1
bin	1572	0
bin	1574	0
bin	1576	0
bin	1578	0
bin	1580	1
bin	1582	0
bin	1584	0
bin	1586	0
bin	1588	0
bin	1590	0
bin	1592	0
bin	1594	0
bin	1596	0
bin	1598	0
bin	1600	0
scalar Net5.rte[9].queue[0] txBytes:count 76
attr interpolationmode none
attr title "transmitting packet byte length, count"
attr unit bytes
scalar Net5.rte[9].queue[0] txBytes:sum 114120
attr interpolationmode none
attr title "transmitting packet byte length, sum"
attr unit bytes
statistic Net5.rte[9].queue[0] txBytes:histogram
field count 76
field mean 1501.5789473684
field stddev 10.204917975028
field min 1500
field max 1580
field sum 114120
field sqrsum 171368000
attr interpolationmode none
attr title "transmitting packet byte length, histogram"
attr unit bytes
bin	-inf	0
bin	1480	0
bin	1482	0
bin	1484	0
bin	1486	0
bin	1488	0
bin	1490	0
bin	1492	0
bin	1494	0
bin	1496	0
bin	1498	0
bin	1500	74
bin	1502	0
bin	1504	0
bin	1506	0
bin	1508	0
bin	1510	0
bin	1512	0
bin	1514	0
bin	1516	0
bin	1518	0
bin	1520	0
bin	1522	0
bin	1524	0
bin	1526	0
bin	1528	0
bin	1530	0
bin	1532	0
bin	1534	0
bin	1536	0
bin	1538	0
bin	1540	1
bin	1542	0
bin	1544	0
bin	1546	0
bin	1548	0
bin	1550	0
bin	1552	0
bin	1554	0
bin	1556	0
bin	1558	0
bin	1560	0
bin	1562	0
bin	1564	0
bin	1566	0
bin	1568	0
bin	1570	0
bin	1572	0
bin	1574	0
bin	1576	0
bin	1578	0
bin	1580	1
bin	1582	0
bin	1584	0
bin	1586	0
bin	1588	0
bin	1590	0
bin	1592	0
bin	1594	0
bin	1596	0
bin	1598	0
bin	1600	0
scalar Net5.rte[9].queue[0] busy:timeavg 0.0023420860956493
attr interpolationmode sample-hold
attr title "server busy state, timeavg"
scalar Net5.rte[9].queue[0] qlen:timeavg 0.0035094350013773
attr interpolationmode sample-hold
attr title "queue length, timeavg"
scalar Net5.rte[9].queue[0] qlen:max 4
attr interpolationmode sample-hold
attr title "queue length, max"
scalar Net5.rte[9].queue[0] drop:count 0
attr interpolationmode none
attr title "dropped packet byte length, count"
attr unit bytes
scalar Net5.rte[9].queue[0] drop:sum 0
attr interpolationmode none
attr title "dropped packet byte length, sum"
attr unit bytes
scalar Net5.rte[9].queue[1] rxBytes:count 60
attr interpolationmode none
attr title "received packet byte length, count"
attr unit bytes
scalar Net5.rte[9].queue[1] rxBytes:sum 90290
attr interpolationmode none
attr title "received packet byte length, sum"
attr unit bytes
statistic Net5.rte[9].queue[1] rxBytes:histogram
field count 60
field mean 1504.8333333333
field stddev 18.639457570735
field min 1500
field max 1610
field sum 90290
field sqrsum 135891900
attr interpolationmode none
attr title "received packet byte length, histogram"
attr unit bytes
bin	-inf	0
bin	1472	0
bin	1474	0
bin	1476	0
bin	1478	0
bin	1480	0
bin	1482	0
bin	1484	0
bin	1486	0
bin	1488	0
bin	1490	0
bin	1492	0
bin	1494	0
bin	1496	0
bin	1498	0
bin	1500	55
bin	1502	0
bin	1504	0
bin	1506	0
bin	1508	0
bin	1510	0
bin	1512	0
bin	1514	0
bin	1516	0
bin	1518	0
bin	1520	1
bin	1522	0
bin	1524	0
bin	1526	0
bin	1528	0
bin	1530	1
bin	1532	0
bin	1534	0
bin	1536	0
bin	1538	0
bin	1540	0
bin	1542	0
bin	1544	0
bin	1546	0
bin	1548	0
bin	1550	0
bin	1552	0
bin	1554	0
bin	1556	0
bin	1558	0
bin	1560	1
bin	1562	0
bin	1564	0
bin	1566	0
bin	1568	0
bin	1570	1
bin	1572	0
bin	1574	0
bin	1576	0
bin	1578	0
bin	1580	0
bin	1582	0
bin	1584	0
bin	1586	0
bin	1588	0
bin	1590	0
bin	1592	0
bin	1594	0
bin	1596	0
bin	1598	0
bin	1600	0
bin	1602	0
bin	1604	0
bin	1606	0
bin	1608	0
bin	1610	1
bin	1612	0
bin	1614	0
bin	1616	0
bin	1618	0
bin	1620	0
bin	1622	0
bin	1624	0
bin	1626	0
bin	1628	0
bin	1630	0
bin	1632	0
bin	1634	0
bin	1636	0
bin	1638	0
scalar Net5.rte[9].queue[1] txBytes:count 90
attr interpolationmode none
attr title "transmitting packet byte length, count"
attr unit bytes
scalar Net5.rte[9].queue[1] txBytes:sum 135100
attr interpolationmode none
attr title "transmitting packet byte length, sum"
attr unit bytes
statistic Net5.rte[9].queue[1] txBytes:histogram
field count 90
field mean 1501.1111111111
field stddev 10.540925533898
field min 1500
field max 1600
field sum 135100
field sqrsum 202810000
attr interpolationmode none
attr title "transmitting packet byte length, histogram"
attr unit bytes
bin	-inf	0
bin	1499	89
bin	1501	0
bin	1503	0
bin	1505	0
bin	1507	0
bin	1509	0
bin	1511	0
bin	1513	0
bin	1515	0
bin	1517	0
bin	1519	0
bin	1521	0
bin	1523	0
bin	1525	0
bin	1527	0
bin	1529	0
bin	1531	0
bin	1533	0
bin	1535	0
bin	1537	0
bin	1539	0
bin	1541	0
bin	1543	0
bin	1545	0
bin	1547	0
bin	1549	0
bin	1551	0
bin	1553	0
bin	1555	0
bin	1557	0
bin	1559	0
bin	1561	0
bin	1563	0
bin	1565	0
bin	1567	0
bin	1569	0
bin	1571	0
bin	1573	0
bin	1575	0
bin	1577	0
bin	1579	0
bin	1581	0
bin	1583	0
bin	1585	0
bin	1587	0
bin	1589	0
bin	1591	0
bin	1593	0
bin	1595	0
bin	1597	0
bin	1599	1
bin	1601	0
scalar Net5.rte[9].queue[1] busy:timeavg 0.0027726588812026
attr interpolationmode sample-hold
attr title "server busy state, timeavg"
scalar Net5.rte[9].queue[1] qlen:timeavg 0.0055412131600694
attr interpolationmode sample-hold
attr title "queue length, timeavg"
scalar Net5.rte[9].queue[1] qlen:max 5
attr interpolationmode sample-hold
attr title "queue length, max"
scalar Net5.rte[9].queue[1] drop:count 0
attr interpolationmode none
attr title "dropped packet byte length, count"
attr unit bytes
scalar Net5.rte[9].queue[1] drop:sum 0
attr interpolationmode none
attr title "dropped packet byte length, sum"
attr unit bytes

